version 3
run General-0-20260525-15:32:28-10300
attr configname General
attr datetime 20260525-15:32:28
attr datetimef 20260525-153228
attr experiment General
attr inifile omnetpp.ini
attr iterationvars ""
attr iterationvarsd ""
attr iterationvarsf ""
attr measurement ""
attr network src.STPRingNetwork
attr processid 10300
attr repetition 0
attr replication #0
attr resultdir results
attr runnumber 0
attr seedset 0
config image-path ../../inet-4.6.0/images
config network src.STPRingNetwork
config sim-time-limit 200s
config *.scenarioManager.script "xmldoc(\"scenario.xml\")"
config *.sw*.hasStp true
config *.sw*.spanningTreeProtocol "\"Stp\""
config *.sw*.llc.typename Ieee8022Llc
config *.sw1.stp.bridgePriority 4096
config *.sw2.stp.bridgePriority 32768
config *.sw3.stp.bridgePriority 32768
config *.sw4.stp.bridgePriority 32768
config *.sw*.stp.helloTime 2s
config *.sw*.stp.forwardDelay 15s
config *.sw*.stp.maxAge 20s
config *.sw*.stp.visualize true
config *.host1.numApps 1
config *.host1.app[0].typename PingApp
config *.host1.app[0].destAddr "\"host2\""
config *.host1.app[0].startTime 35s

par STPRingNetwork.sw1.ethg$o[0].channel typename "\"ned.DatarateChannel\""
par STPRingNetwork.sw1.ethg$o[0].channel disabled false
attr mutable ""
par STPRingNetwork.sw1.ethg$o[0].channel delay 1e-04s
attr mutable ""
attr unit s
par STPRingNetwork.sw1.ethg$o[0].channel datarate 1e+08bps
attr mutable ""
attr unit bps
par STPRingNetwork.sw1.ethg$o[0].channel ber 0
attr mutable ""
par STPRingNetwork.sw1.ethg$o[0].channel per 0
attr mutable ""
par STPRingNetwork.sw2.ethg$o[0].channel typename "\"ned.DatarateChannel\""
par STPRingNetwork.sw2.ethg$o[0].channel disabled false
attr mutable ""
par STPRingNetwork.sw2.ethg$o[0].channel delay 1e-04s
attr mutable ""
attr unit s
par STPRingNetwork.sw2.ethg$o[0].channel datarate 1e+08bps
attr mutable ""
attr unit bps
par STPRingNetwork.sw2.ethg$o[0].channel ber 0
attr mutable ""
par STPRingNetwork.sw2.ethg$o[0].channel per 0
attr mutable ""
par STPRingNetwork.sw2.ethg$o[1].channel typename "\"ned.DatarateChannel\""
par STPRingNetwork.sw2.ethg$o[1].channel disabled false
attr mutable ""
par STPRingNetwork.sw2.ethg$o[1].channel delay 1e-04s
attr mutable ""
attr unit s
par STPRingNetwork.sw2.ethg$o[1].channel datarate 1e+08bps
attr mutable ""
attr unit bps
par STPRingNetwork.sw2.ethg$o[1].channel ber 0
attr mutable ""
par STPRingNetwork.sw2.ethg$o[1].channel per 0
attr mutable ""
par STPRingNetwork.sw3.ethg$o[0].channel typename "\"ned.DatarateChannel\""
par STPRingNetwork.sw3.ethg$o[0].channel disabled false
attr mutable ""
par STPRingNetwork.sw3.ethg$o[0].channel delay 1e-04s
attr mutable ""
attr unit s
par STPRingNetwork.sw3.ethg$o[0].channel datarate 1e+08bps
attr mutable ""
attr unit bps
par STPRingNetwork.sw3.ethg$o[0].channel ber 0
attr mutable ""
par STPRingNetwork.sw3.ethg$o[0].channel per 0
attr mutable ""
par STPRingNetwork.sw3.ethg$o[1].channel typename "\"ned.DatarateChannel\""
par STPRingNetwork.sw3.ethg$o[1].channel disabled false
attr mutable ""
par STPRingNetwork.sw3.ethg$o[1].channel delay 1e-04s
attr mutable ""
attr unit s
par STPRingNetwork.sw3.ethg$o[1].channel datarate 1e+08bps
attr mutable ""
attr unit bps
par STPRingNetwork.sw3.ethg$o[1].channel ber 0
attr mutable ""
par STPRingNetwork.sw3.ethg$o[1].channel per 0
attr mutable ""
par STPRingNetwork.sw4.ethg$o[0].channel typename "\"ned.DatarateChannel\""
par STPRingNetwork.sw4.ethg$o[0].channel disabled false
attr mutable ""
par STPRingNetwork.sw4.ethg$o[0].channel delay 1e-04s
attr mutable ""
attr unit s
par STPRingNetwork.sw4.ethg$o[0].channel datarate 1e+08bps
attr mutable ""
attr unit bps
par STPRingNetwork.sw4.ethg$o[0].channel ber 0
attr mutable ""
par STPRingNetwork.sw4.ethg$o[0].channel per 0
attr mutable ""
par STPRingNetwork.sw4.ethg$o[1].channel typename "\"ned.DatarateChannel\""
par STPRingNetwork.sw4.ethg$o[1].channel disabled false
attr mutable ""
par STPRingNetwork.sw4.ethg$o[1].channel delay 1e-04s
attr mutable ""
attr unit s
par STPRingNetwork.sw4.ethg$o[1].channel datarate 1e+08bps
attr mutable ""
attr unit bps
par STPRingNetwork.sw4.ethg$o[1].channel ber 0
attr mutable ""
par STPRingNetwork.sw4.ethg$o[1].channel per 0
attr mutable ""
par STPRingNetwork.sw1.ethg$o[1].channel typename "\"ned.DatarateChannel\""
par STPRingNetwork.sw1.ethg$o[1].channel disabled false
attr mutable ""
par STPRingNetwork.sw1.ethg$o[1].channel delay 1e-04s
attr mutable ""
attr unit s
par STPRingNetwork.sw1.ethg$o[1].channel datarate 1e+08bps
attr mutable ""
attr unit bps
par STPRingNetwork.sw1.ethg$o[1].channel ber 0
attr mutable ""
par STPRingNetwork.sw1.ethg$o[1].channel per 0
attr mutable ""
par STPRingNetwork.host1.ethg$o[0].channel typename "\"ned.DatarateChannel\""
par STPRingNetwork.host1.ethg$o[0].channel disabled false
attr mutable ""
par STPRingNetwork.host1.ethg$o[0].channel delay 1e-04s
attr mutable ""
attr unit s
par STPRingNetwork.host1.ethg$o[0].channel datarate 1e+08bps
attr mutable ""
attr unit bps
par STPRingNetwork.host1.ethg$o[0].channel ber 0
attr mutable ""
par STPRingNetwork.host1.ethg$o[0].channel per 0
attr mutable ""
par STPRingNetwork.sw1.ethg$o[2].channel typename "\"ned.DatarateChannel\""
par STPRingNetwork.sw1.ethg$o[2].channel disabled false
attr mutable ""
par STPRingNetwork.sw1.ethg$o[2].channel delay 1e-04s
attr mutable ""
attr unit s
par STPRingNetwork.sw1.ethg$o[2].channel datarate 1e+08bps
attr mutable ""
attr unit bps
par STPRingNetwork.sw1.ethg$o[2].channel ber 0
attr mutable ""
par STPRingNetwork.sw1.ethg$o[2].channel per 0
attr mutable ""
par STPRingNetwork.host2.ethg$o[0].channel typename "\"ned.DatarateChannel\""
par STPRingNetwork.host2.ethg$o[0].channel disabled false
attr mutable ""
par STPRingNetwork.host2.ethg$o[0].channel delay 1e-04s
attr mutable ""
attr unit s
par STPRingNetwork.host2.ethg$o[0].channel datarate 1e+08bps
attr mutable ""
attr unit bps
par STPRingNetwork.host2.ethg$o[0].channel ber 0
attr mutable ""
par STPRingNetwork.host2.ethg$o[0].channel per 0
attr mutable ""
par STPRingNetwork.sw3.ethg$o[2].channel typename "\"ned.DatarateChannel\""
par STPRingNetwork.sw3.ethg$o[2].channel disabled false
attr mutable ""
par STPRingNetwork.sw3.ethg$o[2].channel delay 1e-04s
attr mutable ""
attr unit s
par STPRingNetwork.sw3.ethg$o[2].channel datarate 1e+08bps
attr mutable ""
attr unit bps
par STPRingNetwork.sw3.ethg$o[2].channel ber 0
attr mutable ""
par STPRingNetwork.sw3.ethg$o[2].channel per 0
attr mutable ""
par STPRingNetwork.configurator typename "\"inet.networklayer.configurator.ipv4.Ipv4NetworkConfigurator\""
par STPRingNetwork.configurator displayStringTextFormat "\"\""
attr mutable ""
par STPRingNetwork.configurator minLinkWeight 0.001
par STPRingNetwork.configurator configureIsolatedNetworksSeparatly false
par STPRingNetwork.configurator config "xml('<config>\\n  <interface address=\"10.x.x.x\" hosts=\"**\" netmask=\"255.x.x.x\"/>\\n</config>\\n')"
par STPRingNetwork.configurator assignAddresses true
par STPRingNetwork.configurator assignUniqueAddresses true
par STPRingNetwork.configurator assignDisjunctSubnetAddresses true
par STPRingNetwork.configurator addStaticRoutes true
par STPRingNetwork.configurator addDefaultRoutes true
par STPRingNetwork.configurator addSubnetRoutes true
par STPRingNetwork.configurator addDirectRoutes true
par STPRingNetwork.configurator optimizeRoutes true
par STPRingNetwork.configurator updateRoutes false
par STPRingNetwork.configurator dumpTopology false
par STPRingNetwork.configurator dumpLinks false
par STPRingNetwork.configurator dumpAddresses false
par STPRingNetwork.configurator dumpRoutes false
par STPRingNetwork.configurator dumpConfig "\"\""
par STPRingNetwork.sw1.eth[0].phys$o.channel typename "\"ned.IdealChannel\""
par STPRingNetwork.sw1.ethg$i[0].channel typename "\"ned.IdealChannel\""
par STPRingNetwork.sw1.eth[1].phys$o.channel typename "\"ned.IdealChannel\""
par STPRingNetwork.sw1.ethg$i[1].channel typename "\"ned.IdealChannel\""
par STPRingNetwork.sw1.eth[2].phys$o.channel typename "\"ned.IdealChannel\""
par STPRingNetwork.sw1.ethg$i[2].channel typename "\"ned.IdealChannel\""
par STPRingNetwork.sw1.macTable typename "\"inet.linklayer.ethernet.common.MacForwardingTable\""
par STPRingNetwork.sw1.macTable displayStringTextFormat "\"addr: %a\\nvlan: %v\""
attr mutable ""
par STPRingNetwork.sw1.macTable agingTime 120s
attr unit s
par STPRingNetwork.sw1.macTable forwardingTable []
attr mutable ""
par STPRingNetwork.sw1.macTable forwardingTableFile "\"\""
par STPRingNetwork.sw1.macTable interfaceTableModule "\"STPRingNetwork.sw1.interfaceTable\""
par STPRingNetwork.sw1.interfaceTable typename "\"inet.networklayer.common.InterfaceTable\""
par STPRingNetwork.sw1.interfaceTable displayStringTextFormat "\"\""
attr mutable ""
par STPRingNetwork.sw1.interfaceTable displayAddresses false
par STPRingNetwork.sw1.l2NodeConfigurator typename "\"inet.linklayer.configurator.common.L2NodeConfigurator\""
par STPRingNetwork.sw1.l2NodeConfigurator displayStringTextFormat "\"\""
attr mutable ""
par STPRingNetwork.sw1.l2NodeConfigurator interfaceTableModule "\"STPRingNetwork.sw1.interfaceTable\""
par STPRingNetwork.sw1.l2NodeConfigurator l2ConfiguratorModule "\"l2NetworkConfigurator\""
par STPRingNetwork.sw1.stp typename "\"inet.linklayer.ieee8021d.stp.Stp\""
par STPRingNetwork.sw1.stp displayStringTextFormat "\"\""
attr mutable ""
par STPRingNetwork.sw1.stp helloTime 2s
attr unit s
par STPRingNetwork.sw1.stp forwardDelay 15s
attr unit s
par STPRingNetwork.sw1.stp maxAge 20s
attr unit s
par STPRingNetwork.sw1.stp bridgePriority 4096
par STPRingNetwork.sw1.stp interfaceTableModule "\"STPRingNetwork.sw1.interfaceTable\""
par STPRingNetwork.sw1.stp macTableModule "\"STPRingNetwork.sw1.macTable\""
par STPRingNetwork.sw1.stp visualize true
par STPRingNetwork.sw1.sc typename "\"inet.common.MessageDispatcher\""
par STPRingNetwork.sw1.sc displayStringTextFormat "\"processed %p pk (%l)\""
attr mutable ""
par STPRingNetwork.sw1.sc interfaceTableModule "\"STPRingNetwork.sw1.interfaceTable\""
par STPRingNetwork.sw1.sc forwardServiceRegistration true
par STPRingNetwork.sw1.sc forwardProtocolRegistration true
par STPRingNetwork.sw1.sc interfaceMapping {}
par STPRingNetwork.sw1.sc serviceMapping {}
par STPRingNetwork.sw1.sc protocolMapping {}
par STPRingNetwork.sw1.llc typename "\"inet.linklayer.ieee8022.Ieee8022Llc\""
par STPRingNetwork.sw1.llc displayStringTextFormat "\"\""
attr mutable ""
par STPRingNetwork.sw1.llc registerProtocol true
par STPRingNetwork.sw1.cb typename "\"inet.common.MessageDispatcher\""
par STPRingNetwork.sw1.cb displayStringTextFormat "\"processed %p pk (%l)\""
attr mutable ""
par STPRingNetwork.sw1.cb interfaceTableModule "\"STPRingNetwork.sw1.interfaceTable\""
par STPRingNetwork.sw1.cb forwardServiceRegistration true
par STPRingNetwork.sw1.cb forwardProtocolRegistration true
par STPRingNetwork.sw1.cb interfaceMapping {}
par STPRingNetwork.sw1.cb serviceMapping {}
par STPRingNetwork.sw1.cb protocolMapping {}
par STPRingNetwork.sw1.bridging typename "\"inet.linklayer.ieee8021d.relay.Ieee8021dRelay\""
par STPRingNetwork.sw1.bridging displayStringTextFormat "\"proc: %p\\ndisc: %d\""
attr mutable ""
par STPRingNetwork.sw1.bridging macTableModule "\"STPRingNetwork.sw1.macTable\""
par STPRingNetwork.sw1.bridging interfaceTableModule "\"STPRingNetwork.sw1.interfaceTable\""
scalar STPRingNetwork.sw1.bridging "processed frames" 0
scalar STPRingNetwork.sw1.bridging "discarded frames" 0
scalar STPRingNetwork.sw1.bridging "number of received BPDUs from STP module" 0
scalar STPRingNetwork.sw1.bridging "number of received frames from network (including BPDUs)" 16
scalar STPRingNetwork.sw1.bridging "number of dropped frames (including BPDUs)" 0
scalar STPRingNetwork.sw1.bridging "number of delivered BPDUs to the STP module" 0
scalar STPRingNetwork.sw1.bridging "number of dispatched BPDU frames to the network" 0
scalar STPRingNetwork.sw1.bridging "number of dispatched non-BDPU frames to the network" 0
scalar STPRingNetwork.sw1.bridging packetDropped:count 0
attr interpolationmode none
attr recordingmode count
attr title "packets dropped, count"
scalar STPRingNetwork.sw1.bridging packetDropped:sum(packetBytes) 0
attr interpolationmode none
attr recordingmode sum(packetBytes)
attr title "packets dropped, sum(packetBytes)"
par STPRingNetwork.sw1.bl typename "\"inet.common.MessageDispatcher\""
par STPRingNetwork.sw1.bl displayStringTextFormat "\"processed %p pk (%l)\""
attr mutable ""
par STPRingNetwork.sw1.bl interfaceTableModule "\"STPRingNetwork.sw1.interfaceTable\""
par STPRingNetwork.sw1.bl forwardServiceRegistration true
par STPRingNetwork.sw1.bl forwardProtocolRegistration true
par STPRingNetwork.sw1.bl interfaceMapping {}
par STPRingNetwork.sw1.bl serviceMapping {}
par STPRingNetwork.sw1.bl protocolMapping {}
par STPRingNetwork.sw1.ethernet typename "\"inet.linklayer.ethernet.basic.EthernetEncapsulation\""
par STPRingNetwork.sw1.ethernet displayStringTextFormat "\"\""
attr mutable ""
par STPRingNetwork.sw1.ethernet registerProtocol true
par STPRingNetwork.sw1.ethernet interfaceTableModule "\"STPRingNetwork.sw1.interfaceTable\""
par STPRingNetwork.sw1.ethernet fcsMode "\"declared\""
attr enum declared,computed
par STPRingNetwork.sw1.ethernet stopOperationExtraTime -1s
attr unit s
par STPRingNetwork.sw1.ethernet stopOperationTimeout 2s
attr unit s
scalar STPRingNetwork.sw1.ethernet decapPk:count 16
attr interpolationmode none
attr recordingmode count
attr source decapPk
attr title "packets decapsulated, count"
scalar STPRingNetwork.sw1.ethernet decapPk:sum(packetBytes) 868
attr interpolationmode none
attr recordingmode sum(packetBytes)
attr source decapPk
attr title "packets decapsulated, sum(packetBytes)"
scalar STPRingNetwork.sw1.ethernet encapPk:count 131
attr interpolationmode none
attr recordingmode count
attr source encapPk
attr title "packets encapsulated, count"
scalar STPRingNetwork.sw1.ethernet encapPk:sum(packetBytes) 5370
attr interpolationmode none
attr recordingmode sum(packetBytes)
attr source encapPk
attr title "packets encapsulated, sum(packetBytes)"
scalar STPRingNetwork.sw1.ethernet pauseSent:count 0
attr recordingmode count
attr title "pause sent, count"
scalar STPRingNetwork.sw1.ethernet pauseSent:sum 0
attr recordingmode sum
attr title "pause sent, sum"
par STPRingNetwork.sw1.li typename "\"inet.common.MessageDispatcher\""
par STPRingNetwork.sw1.li displayStringTextFormat "\"processed %p pk (%l)\""
attr mutable ""
par STPRingNetwork.sw1.li interfaceTableModule "\"STPRingNetwork.sw1.interfaceTable\""
par STPRingNetwork.sw1.li forwardServiceRegistration true
par STPRingNetwork.sw1.li forwardProtocolRegistration true
par STPRingNetwork.sw1.li interfaceMapping {}
par STPRingNetwork.sw1.li serviceMapping {}
par STPRingNetwork.sw1.li protocolMapping {}
par STPRingNetwork.sw1.eth[0].mac.phys$o.channel typename "\"ned.IdealChannel\""
par STPRingNetwork.sw1.eth[0].phys$i.channel typename "\"ned.IdealChannel\""
par STPRingNetwork.sw1.eth[0].upperLayerIn.channel typename "\"ned.IdealChannel\""
par STPRingNetwork.sw1.eth[0].mac.upperLayerOut.channel typename "\"ned.IdealChannel\""
par STPRingNetwork.sw1.eth[0].queue typename "\"inet.linklayer.ethernet.common.EthernetQueue\""
par STPRingNetwork.sw1.eth[0].queue displayStringTextFormat "\"contains %p pk (%l) pushed %u\\npulled %o removed %r dropped %d\""
attr mutable ""
par STPRingNetwork.sw1.eth[0].queue packetCapacity 1000
par STPRingNetwork.sw1.eth[0].queue dataCapacity -1b
attr unit b
par STPRingNetwork.sw1.eth[0].queue dropperClass "\"inet::queueing::PacketAtCollectionEndDropper\""
par STPRingNetwork.sw1.eth[0].queue comparatorClass "\"inet::EthernetFrameTypeComparator\""
par STPRingNetwork.sw1.eth[0].queue bufferModule "\"\""
scalar STPRingNetwork.sw1.eth[0].queue queueLength:last 0
attr autoWarmupFilter false
attr interpolationmode sample-hold
attr recordingmode last
attr source "warmup(atomic(constant0(packetPushEnded) + count(packetPushStarted) - count(packetPulled) - count(packetRemoved) - count(packetDropped)))"
attr title "queue length, last"
attr unit pk
scalar STPRingNetwork.sw1.eth[0].queue queueLength:max 0
attr autoWarmupFilter false
attr interpolationmode sample-hold
attr recordingmode max
attr source "warmup(atomic(constant0(packetPushEnded) + count(packetPushStarted) - count(packetPulled) - count(packetRemoved) - count(packetDropped)))"
attr title "queue length, max"
attr unit pk
scalar STPRingNetwork.sw1.eth[0].queue queueLength:timeavg 0
attr autoWarmupFilter false
attr interpolationmode sample-hold
attr recordingmode timeavg
attr source "warmup(atomic(constant0(packetPushEnded) + count(packetPushStarted) - count(packetPulled) - count(packetRemoved) - count(packetDropped)))"
attr title "queue length, timeavg"
attr unit pk
scalar STPRingNetwork.sw1.eth[0].queue queueBitLength:last 0
attr autoWarmupFilter false
attr interpolationmode sample-hold
attr recordingmode last
attr source "warmup(atomic(constant0(packetPushEnded) + sum(packetLength(packetPushStarted)) - sum(packetLength(packetPulled)) - sum(packetLength(packetRemoved)) - sum(packetLength(packetDropped))))"
attr title "queue bit length, last"
attr unit b
scalar STPRingNetwork.sw1.eth[0].queue queueBitLength:max 0
attr autoWarmupFilter false
attr interpolationmode sample-hold
attr recordingmode max
attr source "warmup(atomic(constant0(packetPushEnded) + sum(packetLength(packetPushStarted)) - sum(packetLength(packetPulled)) - sum(packetLength(packetRemoved)) - sum(packetLength(packetDropped))))"
attr title "queue bit length, max"
attr unit b
scalar STPRingNetwork.sw1.eth[0].queue queueBitLength:timeavg 0
attr autoWarmupFilter false
attr interpolationmode sample-hold
attr recordingmode timeavg
attr source "warmup(atomic(constant0(packetPushEnded) + sum(packetLength(packetPushStarted)) - sum(packetLength(packetPulled)) - sum(packetLength(packetRemoved)) - sum(packetLength(packetDropped))))"
attr title "queue bit length, timeavg"
attr unit b
statistic STPRingNetwork.sw1.eth[0].queue queueingTime:histogram
field count 47
field mean 0
field stddev 0
field min 0
field max 0
field sum 0
field sqrsum 0
attr interpolationmode none
attr recordingmode histogram
attr source queueingTime(packetPulled)
attr title "queueing times"
attr unit s
bin	-inf	0
bin	-0.5	0
bin	-0.48	0
bin	-0.46	0
bin	-0.44	0
bin	-0.42	0
bin	-0.4	0
bin	-0.38	0
bin	-0.36	0
bin	-0.33999999999999997	0
bin	-0.32	0
bin	-0.3	0
bin	-0.28	0
bin	-0.26	0
bin	-0.24	0
bin	-0.21999999999999997	0
bin	-0.2	0
bin	-0.18	0
bin	-0.15999999999999998	0
bin	-0.14	0
bin	-0.12	0
bin	-0.09999999999999998	0
bin	-0.08000000000000002	0
bin	-0.06	0
bin	-0.03999999999999998	0
bin	-0.020000000000000018	0
bin	0	47
bin	0.020000000000000018	0
bin	0.040000000000000036	0
bin	0.06000000000000005	0
bin	0.07999999999999996	0
bin	0.09999999999999998	0
bin	0.12	0
bin	0.14	0
bin	0.16000000000000003	0
bin	0.18000000000000005	0
bin	0.20000000000000007	0
bin	0.21999999999999997	0
bin	0.24	0
bin	0.26	0
bin	0.28	0
bin	0.30000000000000004	0
bin	0.32000000000000006	0
bin	0.33999999999999997	0
bin	0.36	0
bin	0.38	0
bin	0.4	0
bin	0.42000000000000004	0
bin	0.44000000000000006	0
bin	0.45999999999999996	0
bin	0.48	0
bin	0.5	0
scalar STPRingNetwork.sw1.eth[0].queue outgoingPackets:count 47
attr recordingmode count
attr source packetPulled
attr title "outgoing packets, count"
attr unit pk
scalar STPRingNetwork.sw1.eth[0].queue outgoingPacketLengths:sum 22592
attr interpolationmode none
attr recordingmode sum
attr source packetLength(packetPulled)
attr title "outgoing packet lengths, sum"
attr unit b
statistic STPRingNetwork.sw1.eth[0].queue outgoingPacketLengths:histogram
field count 47
field mean 480.6808510638298
field stddev 103.79685560768476
field min 448
field max 816
field sum 22592
field sqrsum 11355136
attr interpolationmode none
attr recordingmode histogram
attr source packetLength(packetPulled)
attr title "outgoing packet lengths"
attr unit b
bin	-inf	0
bin	350	0
bin	360	0
bin	370	0
bin	380	0
bin	390	0
bin	400	0
bin	410	0
bin	420	0
bin	430	0
bin	440	42
bin	450	0
bin	460	0
bin	470	0
bin	480	0
bin	490	0
bin	500	0
bin	510	1
bin	520	0
bin	530	0
bin	540	0
bin	550	0
bin	560	0
bin	570	0
bin	580	0
bin	590	0
bin	600	0
bin	610	0
bin	620	0
bin	630	0
bin	640	0
bin	650	0
bin	660	0
bin	670	0
bin	680	0
bin	690	0
bin	700	0
bin	710	0
bin	720	0
bin	730	0
bin	740	0
bin	750	0
bin	760	0
bin	770	0
bin	780	0
bin	790	0
bin	800	0
bin	810	4
bin	820	0
bin	830	0
bin	840	0
bin	850	0
bin	860	0
bin	870	0
bin	880	0
bin	890	0
bin	900	0
bin	910	0
statistic STPRingNetwork.sw1.eth[0].queue flowQueueingTime:histogram
field count 0
field mean nan
field stddev nan
field min nan
field max nan
field sum 0
field sqrsum 0
attr interpolationmode none
attr recordingmode histogram
attr source queueingTime(demuxFlow(packetPulled))
attr title "flow queueing times"
attr unit s
bin	-inf	0
bin	0	0
bin	1	0
scalar STPRingNetwork.sw1.eth[0].queue incomingPackets:count 47
attr recordingmode count
attr source packetPushStarted
attr title "incoming packets, count"
attr unit pk
scalar STPRingNetwork.sw1.eth[0].queue incomingPacketLengths:sum 22592
attr interpolationmode none
attr recordingmode sum
attr source packetLength(packetPushStarted)
attr title "incoming packet lengths, sum"
attr unit b
statistic STPRingNetwork.sw1.eth[0].queue incomingPacketLengths:histogram
field count 47
field mean 480.6808510638298
field stddev 103.79685560768476
field min 448
field max 816
field sum 22592
field sqrsum 11355136
attr interpolationmode none
attr recordingmode histogram
attr source packetLength(packetPushStarted)
attr title "incoming packet lengths"
attr unit b
bin	-inf	0
bin	350	0
bin	360	0
bin	370	0
bin	380	0
bin	390	0
bin	400	0
bin	410	0
bin	420	0
bin	430	0
bin	440	42
bin	450	0
bin	460	0
bin	470	0
bin	480	0
bin	490	0
bin	500	0
bin	510	1
bin	520	0
bin	530	0
bin	540	0
bin	550	0
bin	560	0
bin	570	0
bin	580	0
bin	590	0
bin	600	0
bin	610	0
bin	620	0
bin	630	0
bin	640	0
bin	650	0
bin	660	0
bin	670	0
bin	680	0
bin	690	0
bin	700	0
bin	710	0
bin	720	0
bin	730	0
bin	740	0
bin	750	0
bin	760	0
bin	770	0
bin	780	0
bin	790	0
bin	800	0
bin	810	4
bin	820	0
bin	830	0
bin	840	0
bin	850	0
bin	860	0
bin	870	0
bin	880	0
bin	890	0
bin	900	0
bin	910	0
scalar STPRingNetwork.sw1.eth[0].queue droppedPacketsQueueOverflow:count 0
attr interpolationmode none
attr recordingmode count
attr source packetDropReasonIsQueueOverflow(packetDropped)
attr title "dropped packets: queue overflow, count"
attr unit pk
scalar STPRingNetwork.sw1.eth[0].queue droppedPacketLengthsQueueOverflow:sum 0
attr interpolationmode none
attr recordingmode sum
attr source packetLength(packetDropReasonIsQueueOverflow(packetDropped))
attr title "dropped packet lengths: queue overflow, sum"
attr unit b
par STPRingNetwork.sw1.eth[0].mac typename "\"inet.linklayer.ethernet.basic.EthernetMacPhy\""
par STPRingNetwork.sw1.eth[0].mac displayStringTextFormat "\"rate: %b\\nsent: %s, rcvd: %r\\nqueue: %q, drop: %d\""
attr mutable ""
par STPRingNetwork.sw1.eth[0].mac interfaceTableModule "\"STPRingNetwork.sw1.interfaceTable\""
par STPRingNetwork.sw1.eth[0].mac sendRawBytes false
par STPRingNetwork.sw1.eth[0].mac promiscuous true
par STPRingNetwork.sw1.eth[0].mac duplexMode true
par STPRingNetwork.sw1.eth[0].mac allowNonstandardBitrate false
par STPRingNetwork.sw1.eth[0].mac receptionMode "\"auto\""
attr enum onStart,auto,onEnd,forceOnEnd
par STPRingNetwork.sw1.eth[0].mac mtu 1500B
attr unit B
par STPRingNetwork.sw1.eth[0].mac fcsMode "\"declared\""
attr enum declared,computed
par STPRingNetwork.sw1.eth[0].mac stopOperationExtraTime -1s
attr unit s
par STPRingNetwork.sw1.eth[0].mac stopOperationTimeout 2s
attr unit s
scalar STPRingNetwork.sw1.eth[0].mac "simulated time" 39
scalar STPRingNetwork.sw1.eth[0].mac full-duplex 1
scalar STPRingNetwork.sw1.eth[0].mac "frames/sec sent" 1.205128205128205
scalar STPRingNetwork.sw1.eth[0].mac "frames/sec rcvd" 0.23076923076923078
scalar STPRingNetwork.sw1.eth[0].mac "bits/sec sent" 648.2051282051282
scalar STPRingNetwork.sw1.eth[0].mac "bits/sec rcvd" 149.33333333333334
scalar STPRingNetwork.sw1.eth[0].mac "rx channel idle (%)" 99.9998358974359
scalar STPRingNetwork.sw1.eth[0].mac "rx channel utilization (%)" 0.0001641025641025641
statistic STPRingNetwork.sw1.eth[0].mac throughput:histogram
field count 390
field mean 725.3333333333335
field stddev 2502.556896397893
field min 0
field max 20320
field sum 282880.00000000006
field sqrsum 2641408000.0000005
attr interpolationmode linear
attr recordingmode histogram
attr source throughput(transmissionEnded)
attr title throughput
attr unit bps
bin	-inf	0
bin	0	352
bin	500	0
bin	1000	0
bin	1500	0
bin	2000	0
bin	2500	0
bin	3000	0
bin	3500	0
bin	4000	0
bin	4500	0
bin	5000	0
bin	5500	31
bin	6000	0
bin	6500	0
bin	7000	0
bin	7500	0
bin	8000	0
bin	8500	0
bin	9000	0
bin	9500	0
bin	10000	0
bin	10500	0
bin	11000	0
bin	11500	2
bin	12000	0
bin	12500	0
bin	13000	0
bin	13500	0
bin	14000	0
bin	14500	3
bin	15000	0
bin	15500	0
bin	16000	0
bin	16500	0
bin	17000	1
bin	17500	0
bin	18000	0
bin	18500	0
bin	19000	0
bin	19500	0
bin	20000	1
bin	20500	0
bin	21000	0
bin	21500	0
bin	22000	0
statistic STPRingNetwork.sw1.eth[0].mac utilization:histogram
field count 390
field mean 0.0007253333333333334
field stddev 0.0025025568963978934
field min 0
field max 0.020320000000000005
field sum 0.28288
field sqrsum 0.0026414080000000005
attr interpolationmode linear
attr recordingmode histogram
attr source "100 * utilization(count(transmissionStarted) - count(transmissionEnded))"
attr title utilization
attr unit %
bin	-inf	0
bin	0	352
bin	5e-04	0
bin	0.001	0
bin	0.0015	0
bin	0.002	0
bin	0.0025	0
bin	0.003	0
bin	0.0035	0
bin	0.004	0
bin	0.0045000000000000005	0
bin	0.005	0
bin	0.0055	31
bin	0.006	0
bin	0.006500000000000001	0
bin	0.007	0
bin	0.0075	0
bin	0.008	0
bin	0.0085	0
bin	0.009000000000000001	0
bin	0.0095	0
bin	0.01	0
bin	0.0105	0
bin	0.011	0
bin	0.0115	2
bin	0.012	0
bin	0.0125	0
bin	0.013000000000000001	0
bin	0.0135	0
bin	0.014	0
bin	0.0145	3
bin	0.015	0
bin	0.0155	0
bin	0.016	0
bin	0.0165	0
bin	0.017	1
bin	0.0175	0
bin	0.018000000000000002	0
bin	0.0185	0
bin	0.019	0
bin	0.0195	0
bin	0.02	1
bin	0.0205	0
bin	0.021	0
bin	0.021500000000000002	0
bin	0.022	0
scalar STPRingNetwork.sw1.eth[0].mac txPk:count 47
attr interpolationmode none
attr recordingmode count
attr source packetSentToLower
attr title "packets transmitted, count"
scalar STPRingNetwork.sw1.eth[0].mac txPk:sum(packetBytes) 3160
attr interpolationmode none
attr recordingmode sum(packetBytes)
attr source packetSentToLower
attr title "packets transmitted, sum(packetBytes)"
scalar STPRingNetwork.sw1.eth[0].mac packetReceivedFromUpper:count 47
attr interpolationmode none
attr recordingmode count
attr source packetReceivedFromUpper
attr title "packet bytes from higher layer, count"
scalar STPRingNetwork.sw1.eth[0].mac packetReceivedFromUpper:sum(packetBytes) 2824
attr interpolationmode none
attr recordingmode sum(packetBytes)
attr source packetReceivedFromUpper
attr title "packet bytes from higher layer, sum(packetBytes)"
scalar STPRingNetwork.sw1.eth[0].mac passedUpPk:count 9
attr interpolationmode none
attr recordingmode count
attr source packetSentToUpper
attr title "packets passed to higher layer, count"
scalar STPRingNetwork.sw1.eth[0].mac passedUpPk:sum(packetBytes) 728
attr interpolationmode none
attr recordingmode sum(packetBytes)
attr source packetSentToUpper
attr title "packets passed to higher layer, sum(packetBytes)"
scalar STPRingNetwork.sw1.eth[0].mac packetDropIncorrectlyReceived:count 0
attr interpolationmode none
attr recordingmode count
attr source packetDropReasonIsIncorrectlyReceived(packetDropped)
attr title "packet drop: incorrectly received, count"
scalar STPRingNetwork.sw1.eth[0].mac packetDropIncorrectlyReceived:sum(packetBytes) 0
attr interpolationmode none
attr recordingmode sum(packetBytes)
attr source packetDropReasonIsIncorrectlyReceived(packetDropped)
attr title "packet drop: incorrectly received, sum(packetBytes)"
scalar STPRingNetwork.sw1.eth[0].mac packetDropInterfaceDown:count 0
attr interpolationmode none
attr recordingmode count
attr source packetDropReasonIsInterfaceDown(packetDropped)
attr title "packet drop: interface down, count"
scalar STPRingNetwork.sw1.eth[0].mac packetDropInterfaceDown:sum(packetBytes) 0
attr interpolationmode none
attr recordingmode sum(packetBytes)
attr source packetDropReasonIsInterfaceDown(packetDropped)
attr title "packet drop: interface down, sum(packetBytes)"
scalar STPRingNetwork.sw1.eth[0].mac packetDropNotAddressedToUs:count 0
attr interpolationmode none
attr recordingmode count
attr source packetDropReasonIsNotAddressedToUs(packetDropped)
attr title "packet drop: not addressed to us, count"
scalar STPRingNetwork.sw1.eth[0].mac packetDropNotAddressedToUs:sum(packetBytes) 0
attr interpolationmode none
attr recordingmode sum(packetBytes)
attr source packetDropReasonIsNotAddressedToUs(packetDropped)
attr title "packet drop: not addressed to us, sum(packetBytes)"
scalar STPRingNetwork.sw1.eth[0].mac rxPausePkUnits:count 0
attr interpolationmode none
attr recordingmode count
attr title "pause units received, count"
scalar STPRingNetwork.sw1.eth[0].mac rxPausePkUnits:sum 0
attr interpolationmode none
attr recordingmode sum
attr title "pause units received, sum"
scalar STPRingNetwork.sw1.eth[0].mac txPausePkUnits:count 0
attr interpolationmode none
attr recordingmode count
attr title "pause units sent, count"
scalar STPRingNetwork.sw1.eth[0].mac txPausePkUnits:sum 0
attr interpolationmode none
attr recordingmode sum
attr title "pause units sent, sum"
scalar STPRingNetwork.sw1.eth[0].mac rxPkOk:count 9
attr interpolationmode none
attr recordingmode count
attr source rxPkOk
attr title "packets received OK, count"
scalar STPRingNetwork.sw1.eth[0].mac rxPkOk:sum(packetBytes) 728
attr interpolationmode none
attr recordingmode sum(packetBytes)
attr source rxPkOk
attr title "packets received OK, sum(packetBytes)"
par STPRingNetwork.sw1.eth[0] typename "\"inet.linklayer.ethernet.basic.EthernetInterface\""
par STPRingNetwork.sw1.eth[0] displayStringTextFormat "\"%a (%i)\\n%m\""
attr mutable ""
par STPRingNetwork.sw1.eth[0] recordPcap false
par STPRingNetwork.sw1.eth[0] numPcapRecorders 0
par STPRingNetwork.sw1.eth[0] interfaceTableModule "\"STPRingNetwork.sw1.interfaceTable\""
par STPRingNetwork.sw1.eth[0] protocol "\"ethernetmac\""
par STPRingNetwork.sw1.eth[0] address "\"0A-AA-00-00-00-01\""
attr mutable ""
par STPRingNetwork.sw1.eth[0] duplexMode true
par STPRingNetwork.sw1.eth[0] csmacdSupport false
par STPRingNetwork.sw1.eth[0] bitrate 0bps
attr unit bps
par STPRingNetwork.sw1.eth[0] fcsMode "\"declared\""
attr enum declared,computed
scalar STPRingNetwork.sw1.eth[0] packetDropInterfaceDown:count 0
attr interpolationmode none
attr recordingmode count
attr source packetDropReasonIsInterfaceDown(packetDropped)
attr title "packet drops: interface down, count"
scalar STPRingNetwork.sw1.eth[0] packetDropInterfaceDown:sum(packetBytes) 0
attr interpolationmode none
attr recordingmode sum(packetBytes)
attr source packetDropReasonIsInterfaceDown(packetDropped)
attr title "packet drops: interface down, sum(packetBytes)"
scalar STPRingNetwork.sw1.eth[0] packetDropNoCarrier:count 0
attr interpolationmode none
attr recordingmode count
attr source packetDropReasonIsNoCarrier(packetDropped)
attr title "packet drops: no carrier, count"
scalar STPRingNetwork.sw1.eth[0] packetDropNoCarrier:sum(packetBytes) 0
attr interpolationmode none
attr recordingmode sum(packetBytes)
attr source packetDropReasonIsNoCarrier(packetDropped)
attr title "packet drops: no carrier, sum(packetBytes)"
par STPRingNetwork.sw1.eth[1].mac.phys$o.channel typename "\"ned.IdealChannel\""
par STPRingNetwork.sw1.eth[1].phys$i.channel typename "\"ned.IdealChannel\""
par STPRingNetwork.sw1.eth[1].upperLayerIn.channel typename "\"ned.IdealChannel\""
par STPRingNetwork.sw1.eth[1].mac.upperLayerOut.channel typename "\"ned.IdealChannel\""
par STPRingNetwork.sw1.eth[1].queue typename "\"inet.linklayer.ethernet.common.EthernetQueue\""
par STPRingNetwork.sw1.eth[1].queue displayStringTextFormat "\"contains %p pk (%l) pushed %u\\npulled %o removed %r dropped %d\""
attr mutable ""
par STPRingNetwork.sw1.eth[1].queue packetCapacity 1000
par STPRingNetwork.sw1.eth[1].queue dataCapacity -1b
attr unit b
par STPRingNetwork.sw1.eth[1].queue dropperClass "\"inet::queueing::PacketAtCollectionEndDropper\""
par STPRingNetwork.sw1.eth[1].queue comparatorClass "\"inet::EthernetFrameTypeComparator\""
par STPRingNetwork.sw1.eth[1].queue bufferModule "\"\""
scalar STPRingNetwork.sw1.eth[1].queue queueLength:last 0
attr autoWarmupFilter false
attr interpolationmode sample-hold
attr recordingmode last
attr source "warmup(atomic(constant0(packetPushEnded) + count(packetPushStarted) - count(packetPulled) - count(packetRemoved) - count(packetDropped)))"
attr title "queue length, last"
attr unit pk
scalar STPRingNetwork.sw1.eth[1].queue queueLength:max 0
attr autoWarmupFilter false
attr interpolationmode sample-hold
attr recordingmode max
attr source "warmup(atomic(constant0(packetPushEnded) + count(packetPushStarted) - count(packetPulled) - count(packetRemoved) - count(packetDropped)))"
attr title "queue length, max"
attr unit pk
scalar STPRingNetwork.sw1.eth[1].queue queueLength:timeavg 0
attr autoWarmupFilter false
attr interpolationmode sample-hold
attr recordingmode timeavg
attr source "warmup(atomic(constant0(packetPushEnded) + count(packetPushStarted) - count(packetPulled) - count(packetRemoved) - count(packetDropped)))"
attr title "queue length, timeavg"
attr unit pk
scalar STPRingNetwork.sw1.eth[1].queue queueBitLength:last 0
attr autoWarmupFilter false
attr interpolationmode sample-hold
attr recordingmode last
attr source "warmup(atomic(constant0(packetPushEnded) + sum(packetLength(packetPushStarted)) - sum(packetLength(packetPulled)) - sum(packetLength(packetRemoved)) - sum(packetLength(packetDropped))))"
attr title "queue bit length, last"
attr unit b
scalar STPRingNetwork.sw1.eth[1].queue queueBitLength:max 0
attr autoWarmupFilter false
attr interpolationmode sample-hold
attr recordingmode max
attr source "warmup(atomic(constant0(packetPushEnded) + sum(packetLength(packetPushStarted)) - sum(packetLength(packetPulled)) - sum(packetLength(packetRemoved)) - sum(packetLength(packetDropped))))"
attr title "queue bit length, max"
attr unit b
scalar STPRingNetwork.sw1.eth[1].queue queueBitLength:timeavg 0
attr autoWarmupFilter false
attr interpolationmode sample-hold
attr recordingmode timeavg
attr source "warmup(atomic(constant0(packetPushEnded) + sum(packetLength(packetPushStarted)) - sum(packetLength(packetPulled)) - sum(packetLength(packetRemoved)) - sum(packetLength(packetDropped))))"
attr title "queue bit length, timeavg"
attr unit b
statistic STPRingNetwork.sw1.eth[1].queue queueingTime:histogram
field count 41
field mean 0
field stddev 0
field min 0
field max 0
field sum 0
field sqrsum 0
attr interpolationmode none
attr recordingmode histogram
attr source queueingTime(packetPulled)
attr title "queueing times"
attr unit s
bin	-inf	0
bin	-0.5	0
bin	-0.48	0
bin	-0.46	0
bin	-0.44	0
bin	-0.42	0
bin	-0.4	0
bin	-0.38	0
bin	-0.36	0
bin	-0.33999999999999997	0
bin	-0.32	0
bin	-0.3	0
bin	-0.28	0
bin	-0.26	0
bin	-0.24	0
bin	-0.21999999999999997	0
bin	-0.2	0
bin	-0.18	0
bin	-0.15999999999999998	0
bin	-0.14	0
bin	-0.12	0
bin	-0.09999999999999998	0
bin	-0.08000000000000002	0
bin	-0.06	0
bin	-0.03999999999999998	0
bin	-0.020000000000000018	0
bin	0	41
bin	0.020000000000000018	0
bin	0.040000000000000036	0
bin	0.06000000000000005	0
bin	0.07999999999999996	0
bin	0.09999999999999998	0
bin	0.12	0
bin	0.14	0
bin	0.16000000000000003	0
bin	0.18000000000000005	0
bin	0.20000000000000007	0
bin	0.21999999999999997	0
bin	0.24	0
bin	0.26	0
bin	0.28	0
bin	0.30000000000000004	0
bin	0.32000000000000006	0
bin	0.33999999999999997	0
bin	0.36	0
bin	0.38	0
bin	0.4	0
bin	0.42000000000000004	0
bin	0.44000000000000006	0
bin	0.45999999999999996	0
bin	0.48	0
bin	0.5	0
scalar STPRingNetwork.sw1.eth[1].queue outgoingPackets:count 41
attr recordingmode count
attr source packetPulled
attr title "outgoing packets, count"
attr unit pk
scalar STPRingNetwork.sw1.eth[1].queue outgoingPacketLengths:sum 18432
attr interpolationmode none
attr recordingmode sum
attr source packetLength(packetPulled)
attr title "outgoing packet lengths, sum"
attr unit b
statistic STPRingNetwork.sw1.eth[1].queue outgoingPacketLengths:histogram
field count 41
field mean 449.5609756097561
field stddev 9.995120760870757
field min 448
field max 512
field sum 18432
field sqrsum 8290304
attr interpolationmode none
attr recordingmode histogram
attr source packetLength(packetPulled)
attr title "outgoing packet lengths"
attr unit b
bin	-inf	0
bin	432	0
bin	434	0
bin	436	0
bin	438	0
bin	440	0
bin	442	0
bin	444	0
bin	446	0
bin	448	40
bin	450	0
bin	452	0
bin	454	0
bin	456	0
bin	458	0
bin	460	0
bin	462	0
bin	464	0
bin	466	0
bin	468	0
bin	470	0
bin	472	0
bin	474	0
bin	476	0
bin	478	0
bin	480	0
bin	482	0
bin	484	0
bin	486	0
bin	488	0
bin	490	0
bin	492	0
bin	494	0
bin	496	0
bin	498	0
bin	500	0
bin	502	0
bin	504	0
bin	506	0
bin	508	0
bin	510	0
bin	512	1
bin	514	0
bin	516	0
bin	518	0
bin	520	0
bin	522	0
bin	524	0
bin	526	0
bin	528	0
statistic STPRingNetwork.sw1.eth[1].queue flowQueueingTime:histogram
field count 0
field mean nan
field stddev nan
field min nan
field max nan
field sum 0
field sqrsum 0
attr interpolationmode none
attr recordingmode histogram
attr source queueingTime(demuxFlow(packetPulled))
attr title "flow queueing times"
attr unit s
bin	-inf	0
bin	0	0
bin	1	0
scalar STPRingNetwork.sw1.eth[1].queue incomingPackets:count 41
attr recordingmode count
attr source packetPushStarted
attr title "incoming packets, count"
attr unit pk
scalar STPRingNetwork.sw1.eth[1].queue incomingPacketLengths:sum 18432
attr interpolationmode none
attr recordingmode sum
attr source packetLength(packetPushStarted)
attr title "incoming packet lengths, sum"
attr unit b
statistic STPRingNetwork.sw1.eth[1].queue incomingPacketLengths:histogram
field count 41
field mean 449.5609756097561
field stddev 9.995120760870757
field min 448
field max 512
field sum 18432
field sqrsum 8290304
attr interpolationmode none
attr recordingmode histogram
attr source packetLength(packetPushStarted)
attr title "incoming packet lengths"
attr unit b
bin	-inf	0
bin	432	0
bin	434	0
bin	436	0
bin	438	0
bin	440	0
bin	442	0
bin	444	0
bin	446	0
bin	448	40
bin	450	0
bin	452	0
bin	454	0
bin	456	0
bin	458	0
bin	460	0
bin	462	0
bin	464	0
bin	466	0
bin	468	0
bin	470	0
bin	472	0
bin	474	0
bin	476	0
bin	478	0
bin	480	0
bin	482	0
bin	484	0
bin	486	0
bin	488	0
bin	490	0
bin	492	0
bin	494	0
bin	496	0
bin	498	0
bin	500	0
bin	502	0
bin	504	0
bin	506	0
bin	508	0
bin	510	0
bin	512	1
bin	514	0
bin	516	0
bin	518	0
bin	520	0
bin	522	0
bin	524	0
bin	526	0
bin	528	0
scalar STPRingNetwork.sw1.eth[1].queue droppedPacketsQueueOverflow:count 0
attr interpolationmode none
attr recordingmode count
attr source packetDropReasonIsQueueOverflow(packetDropped)
attr title "dropped packets: queue overflow, count"
attr unit pk
scalar STPRingNetwork.sw1.eth[1].queue droppedPacketLengthsQueueOverflow:sum 0
attr interpolationmode none
attr recordingmode sum
attr source packetLength(packetDropReasonIsQueueOverflow(packetDropped))
attr title "dropped packet lengths: queue overflow, sum"
attr unit b
par STPRingNetwork.sw1.eth[1].mac typename "\"inet.linklayer.ethernet.basic.EthernetMacPhy\""
par STPRingNetwork.sw1.eth[1].mac displayStringTextFormat "\"rate: %b\\nsent: %s, rcvd: %r\\nqueue: %q, drop: %d\""
attr mutable ""
par STPRingNetwork.sw1.eth[1].mac interfaceTableModule "\"STPRingNetwork.sw1.interfaceTable\""
par STPRingNetwork.sw1.eth[1].mac sendRawBytes false
par STPRingNetwork.sw1.eth[1].mac promiscuous true
par STPRingNetwork.sw1.eth[1].mac duplexMode true
par STPRingNetwork.sw1.eth[1].mac allowNonstandardBitrate false
par STPRingNetwork.sw1.eth[1].mac receptionMode "\"auto\""
attr enum onStart,auto,onEnd,forceOnEnd
par STPRingNetwork.sw1.eth[1].mac mtu 1500B
attr unit B
par STPRingNetwork.sw1.eth[1].mac fcsMode "\"declared\""
attr enum declared,computed
par STPRingNetwork.sw1.eth[1].mac stopOperationExtraTime -1s
attr unit s
par STPRingNetwork.sw1.eth[1].mac stopOperationTimeout 2s
attr unit s
scalar STPRingNetwork.sw1.eth[1].mac "simulated time" 39
scalar STPRingNetwork.sw1.eth[1].mac full-duplex 1
scalar STPRingNetwork.sw1.eth[1].mac "frames/sec sent" 1.0512820512820513
scalar STPRingNetwork.sw1.eth[1].mac "frames/sec rcvd" 0.05128205128205128
scalar STPRingNetwork.sw1.eth[1].mac "bits/sec sent" 538.2564102564103
scalar STPRingNetwork.sw1.eth[1].mac "bits/sec rcvd" 26.256410256410255
scalar STPRingNetwork.sw1.eth[1].mac "rx channel idle (%)" 99.99997046153845
scalar STPRingNetwork.sw1.eth[1].mac "rx channel utilization (%)" 2.9538461538461537e-05
statistic STPRingNetwork.sw1.eth[1].mac throughput:histogram
field count 390
field mean 605.5384615384617
field stddev 1908.1365739622072
field min 0
field max 11520.000000000002
field sum 236160.00000000003
field sqrsum 1559347200.0000005
attr interpolationmode linear
attr recordingmode histogram
attr source throughput(transmissionEnded)
attr title throughput
attr unit bps
bin	-inf	0
bin	0	352
bin	200	0
bin	400	0
bin	600	0
bin	800	0
bin	1000	0
bin	1200	0
bin	1400	0
bin	1600	0
bin	1800	0
bin	2000	0
bin	2200	0
bin	2400	0
bin	2600	0
bin	2800	0
bin	3000	0
bin	3200	0
bin	3400	0
bin	3600	0
bin	3800	0
bin	4000	0
bin	4200	0
bin	4400	0
bin	4600	0
bin	4800	0
bin	5000	0
bin	5200	0
bin	5400	0
bin	5600	35
bin	5800	0
bin	6000	0
bin	6200	0
bin	6400	0
bin	6600	0
bin	6800	0
bin	7000	0
bin	7200	0
bin	7400	0
bin	7600	0
bin	7800	0
bin	8000	0
bin	8200	0
bin	8400	0
bin	8600	0
bin	8800	0
bin	9000	0
bin	9200	0
bin	9400	0
bin	9600	0
bin	9800	0
bin	10000	0
bin	10200	0
bin	10400	0
bin	10600	0
bin	10800	0
bin	11000	0
bin	11200	0
bin	11400	3
bin	11600	0
bin	11800	0
bin	12000	0
bin	12200	0
bin	12400	0
bin	12600	0
bin	12800	0
bin	13000	0
bin	13200	0
bin	13400	0
bin	13600	0
bin	13800	0
bin	14000	0
bin	14200	0
bin	14400	0
bin	14600	0
statistic STPRingNetwork.sw1.eth[1].mac utilization:histogram
field count 390
field mean 0.0006055384615384616
field stddev 0.001908136573962207
field min 0
field max 0.01152
field sum 0.23616
field sqrsum 0.0015593472000000003
attr interpolationmode linear
attr recordingmode histogram
attr source "100 * utilization(count(transmissionStarted) - count(transmissionEnded))"
attr title utilization
attr unit %
bin	-inf	0
bin	0	352
bin	2e-04	0
bin	4e-04	0
bin	0.0006000000000000001	0
bin	8e-04	0
bin	0.001	0
bin	0.0012000000000000001	0
bin	0.0014	0
bin	0.0016	0
bin	0.0018000000000000002	0
bin	0.002	0
bin	0.0022	0
bin	0.0024000000000000002	0
bin	0.0026000000000000003	0
bin	0.0028	0
bin	0.003	0
bin	0.0032	0
bin	0.0034000000000000002	0
bin	0.0036000000000000003	0
bin	0.0038	0
bin	0.004	0
bin	0.004200000000000001	0
bin	0.0044	0
bin	0.0046	0
bin	0.0048000000000000004	0
bin	0.005	0
bin	0.005200000000000001	0
bin	0.0054	0
bin	0.0056	35
bin	0.0058000000000000005	0
bin	0.006	0
bin	0.006200000000000001	0
bin	0.0064	0
bin	0.0066	0
bin	0.0068000000000000005	0
bin	0.007	0
bin	0.007200000000000001	0
bin	0.0074	0
bin	0.0076	0
bin	0.0078000000000000005	0
bin	0.008	0
bin	0.0082	0
bin	0.008400000000000001	0
bin	0.0086	0
bin	0.0088	0
bin	0.009000000000000001	0
bin	0.0092	0
bin	0.0094	0
bin	0.009600000000000001	0
bin	0.0098	0
bin	0.01	0
bin	0.0102	0
bin	0.010400000000000001	0
bin	0.0106	0
bin	0.0108	0
bin	0.011000000000000001	0
bin	0.0112	0
bin	0.0114	3
bin	0.011600000000000001	0
bin	0.0118	0
bin	0.012	0
bin	0.0122	0
bin	0.012400000000000001	0
bin	0.0126	0
bin	0.0128	0
bin	0.013000000000000001	0
bin	0.0132	0
bin	0.0134	0
bin	0.013600000000000001	0
bin	0.013800000000000002	0
bin	0.014	0
bin	0.0142	0
bin	0.014400000000000001	0
scalar STPRingNetwork.sw1.eth[1].mac txPk:count 41
attr interpolationmode none
attr recordingmode count
attr source packetSentToLower
attr title "packets transmitted, count"
scalar STPRingNetwork.sw1.eth[1].mac txPk:sum(packetBytes) 2624
attr interpolationmode none
attr recordingmode sum(packetBytes)
attr source packetSentToLower
attr title "packets transmitted, sum(packetBytes)"
scalar STPRingNetwork.sw1.eth[1].mac packetReceivedFromUpper:count 41
attr interpolationmode none
attr recordingmode count
attr source packetReceivedFromUpper
attr title "packet bytes from higher layer, count"
scalar STPRingNetwork.sw1.eth[1].mac packetReceivedFromUpper:sum(packetBytes) 2304
attr interpolationmode none
attr recordingmode sum(packetBytes)
attr source packetReceivedFromUpper
attr title "packet bytes from higher layer, sum(packetBytes)"
scalar STPRingNetwork.sw1.eth[1].mac passedUpPk:count 2
attr interpolationmode none
attr recordingmode count
attr source packetSentToUpper
attr title "packets passed to higher layer, count"
scalar STPRingNetwork.sw1.eth[1].mac passedUpPk:sum(packetBytes) 128
attr interpolationmode none
attr recordingmode sum(packetBytes)
attr source packetSentToUpper
attr title "packets passed to higher layer, sum(packetBytes)"
scalar STPRingNetwork.sw1.eth[1].mac packetDropIncorrectlyReceived:count 0
attr interpolationmode none
attr recordingmode count
attr source packetDropReasonIsIncorrectlyReceived(packetDropped)
attr title "packet drop: incorrectly received, count"
scalar STPRingNetwork.sw1.eth[1].mac packetDropIncorrectlyReceived:sum(packetBytes) 0
attr interpolationmode none
attr recordingmode sum(packetBytes)
attr source packetDropReasonIsIncorrectlyReceived(packetDropped)
attr title "packet drop: incorrectly received, sum(packetBytes)"
scalar STPRingNetwork.sw1.eth[1].mac packetDropInterfaceDown:count 0
attr interpolationmode none
attr recordingmode count
attr source packetDropReasonIsInterfaceDown(packetDropped)
attr title "packet drop: interface down, count"
scalar STPRingNetwork.sw1.eth[1].mac packetDropInterfaceDown:sum(packetBytes) 0
attr interpolationmode none
attr recordingmode sum(packetBytes)
attr source packetDropReasonIsInterfaceDown(packetDropped)
attr title "packet drop: interface down, sum(packetBytes)"
scalar STPRingNetwork.sw1.eth[1].mac packetDropNotAddressedToUs:count 0
attr interpolationmode none
attr recordingmode count
attr source packetDropReasonIsNotAddressedToUs(packetDropped)
attr title "packet drop: not addressed to us, count"
scalar STPRingNetwork.sw1.eth[1].mac packetDropNotAddressedToUs:sum(packetBytes) 0
attr interpolationmode none
attr recordingmode sum(packetBytes)
attr source packetDropReasonIsNotAddressedToUs(packetDropped)
attr title "packet drop: not addressed to us, sum(packetBytes)"
scalar STPRingNetwork.sw1.eth[1].mac rxPausePkUnits:count 0
attr interpolationmode none
attr recordingmode count
attr title "pause units received, count"
scalar STPRingNetwork.sw1.eth[1].mac rxPausePkUnits:sum 0
attr interpolationmode none
attr recordingmode sum
attr title "pause units received, sum"
scalar STPRingNetwork.sw1.eth[1].mac txPausePkUnits:count 0
attr interpolationmode none
attr recordingmode count
attr title "pause units sent, count"
scalar STPRingNetwork.sw1.eth[1].mac txPausePkUnits:sum 0
attr interpolationmode none
attr recordingmode sum
attr title "pause units sent, sum"
scalar STPRingNetwork.sw1.eth[1].mac rxPkOk:count 2
attr interpolationmode none
attr recordingmode count
attr source rxPkOk
attr title "packets received OK, count"
scalar STPRingNetwork.sw1.eth[1].mac rxPkOk:sum(packetBytes) 128
attr interpolationmode none
attr recordingmode sum(packetBytes)
attr source rxPkOk
attr title "packets received OK, sum(packetBytes)"
par STPRingNetwork.sw1.eth[1] typename "\"inet.linklayer.ethernet.basic.EthernetInterface\""
par STPRingNetwork.sw1.eth[1] displayStringTextFormat "\"%a (%i)\\n%m\""
attr mutable ""
par STPRingNetwork.sw1.eth[1] recordPcap false
par STPRingNetwork.sw1.eth[1] numPcapRecorders 0
par STPRingNetwork.sw1.eth[1] interfaceTableModule "\"STPRingNetwork.sw1.interfaceTable\""
par STPRingNetwork.sw1.eth[1] protocol "\"ethernetmac\""
par STPRingNetwork.sw1.eth[1] address "\"0A-AA-00-00-00-02\""
attr mutable ""
par STPRingNetwork.sw1.eth[1] duplexMode true
par STPRingNetwork.sw1.eth[1] csmacdSupport false
par STPRingNetwork.sw1.eth[1] bitrate 0bps
attr unit bps
par STPRingNetwork.sw1.eth[1] fcsMode "\"declared\""
attr enum declared,computed
scalar STPRingNetwork.sw1.eth[1] packetDropInterfaceDown:count 0
attr interpolationmode none
attr recordingmode count
attr source packetDropReasonIsInterfaceDown(packetDropped)
attr title "packet drops: interface down, count"
scalar STPRingNetwork.sw1.eth[1] packetDropInterfaceDown:sum(packetBytes) 0
attr interpolationmode none
attr recordingmode sum(packetBytes)
attr source packetDropReasonIsInterfaceDown(packetDropped)
attr title "packet drops: interface down, sum(packetBytes)"
scalar STPRingNetwork.sw1.eth[1] packetDropNoCarrier:count 0
attr interpolationmode none
attr recordingmode count
attr source packetDropReasonIsNoCarrier(packetDropped)
attr title "packet drops: no carrier, count"
scalar STPRingNetwork.sw1.eth[1] packetDropNoCarrier:sum(packetBytes) 0
attr interpolationmode none
attr recordingmode sum(packetBytes)
attr source packetDropReasonIsNoCarrier(packetDropped)
attr title "packet drops: no carrier, sum(packetBytes)"
par STPRingNetwork.sw1.eth[2].mac.phys$o.channel typename "\"ned.IdealChannel\""
par STPRingNetwork.sw1.eth[2].phys$i.channel typename "\"ned.IdealChannel\""
par STPRingNetwork.sw1.eth[2].upperLayerIn.channel typename "\"ned.IdealChannel\""
par STPRingNetwork.sw1.eth[2].mac.upperLayerOut.channel typename "\"ned.IdealChannel\""
par STPRingNetwork.sw1.eth[2].queue typename "\"inet.linklayer.ethernet.common.EthernetQueue\""
par STPRingNetwork.sw1.eth[2].queue displayStringTextFormat "\"contains %p pk (%l) pushed %u\\npulled %o removed %r dropped %d\""
attr mutable ""
par STPRingNetwork.sw1.eth[2].queue packetCapacity 1000
par STPRingNetwork.sw1.eth[2].queue dataCapacity -1b
attr unit b
par STPRingNetwork.sw1.eth[2].queue dropperClass "\"inet::queueing::PacketAtCollectionEndDropper\""
par STPRingNetwork.sw1.eth[2].queue comparatorClass "\"inet::EthernetFrameTypeComparator\""
par STPRingNetwork.sw1.eth[2].queue bufferModule "\"\""
scalar STPRingNetwork.sw1.eth[2].queue queueLength:last 0
attr autoWarmupFilter false
attr interpolationmode sample-hold
attr recordingmode last
attr source "warmup(atomic(constant0(packetPushEnded) + count(packetPushStarted) - count(packetPulled) - count(packetRemoved) - count(packetDropped)))"
attr title "queue length, last"
attr unit pk
scalar STPRingNetwork.sw1.eth[2].queue queueLength:max 0
attr autoWarmupFilter false
attr interpolationmode sample-hold
attr recordingmode max
attr source "warmup(atomic(constant0(packetPushEnded) + count(packetPushStarted) - count(packetPulled) - count(packetRemoved) - count(packetDropped)))"
attr title "queue length, max"
attr unit pk
scalar STPRingNetwork.sw1.eth[2].queue queueLength:timeavg 0
attr autoWarmupFilter false
attr interpolationmode sample-hold
attr recordingmode timeavg
attr source "warmup(atomic(constant0(packetPushEnded) + count(packetPushStarted) - count(packetPulled) - count(packetRemoved) - count(packetDropped)))"
attr title "queue length, timeavg"
attr unit pk
scalar STPRingNetwork.sw1.eth[2].queue queueBitLength:last 0
attr autoWarmupFilter false
attr interpolationmode sample-hold
attr recordingmode last
attr source "warmup(atomic(constant0(packetPushEnded) + sum(packetLength(packetPushStarted)) - sum(packetLength(packetPulled)) - sum(packetLength(packetRemoved)) - sum(packetLength(packetDropped))))"
attr title "queue bit length, last"
attr unit b
scalar STPRingNetwork.sw1.eth[2].queue queueBitLength:max 0
attr autoWarmupFilter false
attr interpolationmode sample-hold
attr recordingmode max
attr source "warmup(atomic(constant0(packetPushEnded) + sum(packetLength(packetPushStarted)) - sum(packetLength(packetPulled)) - sum(packetLength(packetRemoved)) - sum(packetLength(packetDropped))))"
attr title "queue bit length, max"
attr unit b
scalar STPRingNetwork.sw1.eth[2].queue queueBitLength:timeavg 0
attr autoWarmupFilter false
attr interpolationmode sample-hold
attr recordingmode timeavg
attr source "warmup(atomic(constant0(packetPushEnded) + sum(packetLength(packetPushStarted)) - sum(packetLength(packetPulled)) - sum(packetLength(packetRemoved)) - sum(packetLength(packetDropped))))"
attr title "queue bit length, timeavg"
attr unit b
statistic STPRingNetwork.sw1.eth[2].queue queueingTime:histogram
field count 43
field mean 0
field stddev 0
field min 0
field max 0
field sum 0
field sqrsum 0
attr interpolationmode none
attr recordingmode histogram
attr source queueingTime(packetPulled)
attr title "queueing times"
attr unit s
bin	-inf	0
bin	-0.5	0
bin	-0.48	0
bin	-0.46	0
bin	-0.44	0
bin	-0.42	0
bin	-0.4	0
bin	-0.38	0
bin	-0.36	0
bin	-0.33999999999999997	0
bin	-0.32	0
bin	-0.3	0
bin	-0.28	0
bin	-0.26	0
bin	-0.24	0
bin	-0.21999999999999997	0
bin	-0.2	0
bin	-0.18	0
bin	-0.15999999999999998	0
bin	-0.14	0
bin	-0.12	0
bin	-0.09999999999999998	0
bin	-0.08000000000000002	0
bin	-0.06	0
bin	-0.03999999999999998	0
bin	-0.020000000000000018	0
bin	0	43
bin	0.020000000000000018	0
bin	0.040000000000000036	0
bin	0.06000000000000005	0
bin	0.07999999999999996	0
bin	0.09999999999999998	0
bin	0.12	0
bin	0.14	0
bin	0.16000000000000003	0
bin	0.18000000000000005	0
bin	0.20000000000000007	0
bin	0.21999999999999997	0
bin	0.24	0
bin	0.26	0
bin	0.28	0
bin	0.30000000000000004	0
bin	0.32000000000000006	0
bin	0.33999999999999997	0
bin	0.36	0
bin	0.38	0
bin	0.4	0
bin	0.42000000000000004	0
bin	0.44000000000000006	0
bin	0.45999999999999996	0
bin	0.48	0
bin	0.5	0
scalar STPRingNetwork.sw1.eth[2].queue outgoingPackets:count 43
attr recordingmode count
attr source packetPulled
attr title "outgoing packets, count"
attr unit pk
scalar STPRingNetwork.sw1.eth[2].queue outgoingPacketLengths:sum 20800
attr interpolationmode none
attr recordingmode sum
attr source packetLength(packetPulled)
attr title "outgoing packet lengths, sum"
attr unit b
statistic STPRingNetwork.sw1.eth[2].queue outgoingPacketLengths:histogram
field count 43
field mean 483.72093023255815
field stddev 108.11420892067163
field min 448
field max 816
field sum 20800
field sqrsum 10552320
attr interpolationmode none
attr recordingmode histogram
attr source packetLength(packetPulled)
attr title "outgoing packet lengths"
attr unit b
bin	-inf	0
bin	350	0
bin	360	0
bin	370	0
bin	380	0
bin	390	0
bin	400	0
bin	410	0
bin	420	0
bin	430	0
bin	440	38
bin	450	0
bin	460	0
bin	470	0
bin	480	0
bin	490	0
bin	500	0
bin	510	1
bin	520	0
bin	530	0
bin	540	0
bin	550	0
bin	560	0
bin	570	0
bin	580	0
bin	590	0
bin	600	0
bin	610	0
bin	620	0
bin	630	0
bin	640	0
bin	650	0
bin	660	0
bin	670	0
bin	680	0
bin	690	0
bin	700	0
bin	710	0
bin	720	0
bin	730	0
bin	740	0
bin	750	0
bin	760	0
bin	770	0
bin	780	0
bin	790	0
bin	800	0
bin	810	4
bin	820	0
bin	830	0
bin	840	0
bin	850	0
bin	860	0
bin	870	0
bin	880	0
bin	890	0
bin	900	0
bin	910	0
statistic STPRingNetwork.sw1.eth[2].queue flowQueueingTime:histogram
field count 0
field mean nan
field stddev nan
field min nan
field max nan
field sum 0
field sqrsum 0
attr interpolationmode none
attr recordingmode histogram
attr source queueingTime(demuxFlow(packetPulled))
attr title "flow queueing times"
attr unit s
bin	-inf	0
bin	0	0
bin	1	0
scalar STPRingNetwork.sw1.eth[2].queue incomingPackets:count 43
attr recordingmode count
attr source packetPushStarted
attr title "incoming packets, count"
attr unit pk
scalar STPRingNetwork.sw1.eth[2].queue incomingPacketLengths:sum 20800
attr interpolationmode none
attr recordingmode sum
attr source packetLength(packetPushStarted)
attr title "incoming packet lengths, sum"
attr unit b
statistic STPRingNetwork.sw1.eth[2].queue incomingPacketLengths:histogram
field count 43
field mean 483.72093023255815
field stddev 108.11420892067163
field min 448
field max 816
field sum 20800
field sqrsum 10552320
attr interpolationmode none
attr recordingmode histogram
attr source packetLength(packetPushStarted)
attr title "incoming packet lengths"
attr unit b
bin	-inf	0
bin	350	0
bin	360	0
bin	370	0
bin	380	0
bin	390	0
bin	400	0
bin	410	0
bin	420	0
bin	430	0
bin	440	38
bin	450	0
bin	460	0
bin	470	0
bin	480	0
bin	490	0
bin	500	0
bin	510	1
bin	520	0
bin	530	0
bin	540	0
bin	550	0
bin	560	0
bin	570	0
bin	580	0
bin	590	0
bin	600	0
bin	610	0
bin	620	0
bin	630	0
bin	640	0
bin	650	0
bin	660	0
bin	670	0
bin	680	0
bin	690	0
bin	700	0
bin	710	0
bin	720	0
bin	730	0
bin	740	0
bin	750	0
bin	760	0
bin	770	0
bin	780	0
bin	790	0
bin	800	0
bin	810	4
bin	820	0
bin	830	0
bin	840	0
bin	850	0
bin	860	0
bin	870	0
bin	880	0
bin	890	0
bin	900	0
bin	910	0
scalar STPRingNetwork.sw1.eth[2].queue droppedPacketsQueueOverflow:count 0
attr interpolationmode none
attr recordingmode count
attr source packetDropReasonIsQueueOverflow(packetDropped)
attr title "dropped packets: queue overflow, count"
attr unit pk
scalar STPRingNetwork.sw1.eth[2].queue droppedPacketLengthsQueueOverflow:sum 0
attr interpolationmode none
attr recordingmode sum
attr source packetLength(packetDropReasonIsQueueOverflow(packetDropped))
attr title "dropped packet lengths: queue overflow, sum"
attr unit b
par STPRingNetwork.sw1.eth[2].mac typename "\"inet.linklayer.ethernet.basic.EthernetMacPhy\""
par STPRingNetwork.sw1.eth[2].mac displayStringTextFormat "\"rate: %b\\nsent: %s, rcvd: %r\\nqueue: %q, drop: %d\""
attr mutable ""
par STPRingNetwork.sw1.eth[2].mac interfaceTableModule "\"STPRingNetwork.sw1.interfaceTable\""
par STPRingNetwork.sw1.eth[2].mac sendRawBytes false
par STPRingNetwork.sw1.eth[2].mac promiscuous true
par STPRingNetwork.sw1.eth[2].mac duplexMode true
par STPRingNetwork.sw1.eth[2].mac allowNonstandardBitrate false
par STPRingNetwork.sw1.eth[2].mac receptionMode "\"auto\""
attr enum onStart,auto,onEnd,forceOnEnd
par STPRingNetwork.sw1.eth[2].mac mtu 1500B
attr unit B
par STPRingNetwork.sw1.eth[2].mac fcsMode "\"declared\""
attr enum declared,computed
par STPRingNetwork.sw1.eth[2].mac stopOperationExtraTime -1s
attr unit s
par STPRingNetwork.sw1.eth[2].mac stopOperationTimeout 2s
attr unit s
scalar STPRingNetwork.sw1.eth[2].mac "simulated time" 39
scalar STPRingNetwork.sw1.eth[2].mac full-duplex 1
scalar STPRingNetwork.sw1.eth[2].mac "frames/sec sent" 1.1025641025641026
scalar STPRingNetwork.sw1.eth[2].mac "frames/sec rcvd" 0.1282051282051282
scalar STPRingNetwork.sw1.eth[2].mac "bits/sec sent" 595.6923076923077
scalar STPRingNetwork.sw1.eth[2].mac "bits/sec rcvd" 96.82051282051282
scalar STPRingNetwork.sw1.eth[2].mac "rx channel idle (%)" 99.99989497435897
scalar STPRingNetwork.sw1.eth[2].mac "rx channel utilization (%)" 0.00010502564102564102
statistic STPRingNetwork.sw1.eth[2].mac throughput:histogram
field count 390
field mean 666.2564102564103
field stddev 2269.616874432087
field min 0
field max 20320
field sum 259840.00000000003
field sqrsum 2176921600.0000005
attr interpolationmode linear
attr recordingmode histogram
attr source throughput(transmissionEnded)
attr title throughput
attr unit bps
bin	-inf	0
bin	0	352
bin	400	0
bin	800	0
bin	1200	0
bin	1600	0
bin	2000	0
bin	2400	0
bin	2800	0
bin	3200	0
bin	3600	0
bin	4000	0
bin	4400	0
bin	4800	0
bin	5200	0
bin	5600	34
bin	6000	0
bin	6400	0
bin	6800	0
bin	7200	0
bin	7600	0
bin	8000	0
bin	8400	0
bin	8800	0
bin	9200	0
bin	9600	0
bin	10000	0
bin	10400	0
bin	10800	0
bin	11200	0
bin	11600	0
bin	12000	0
bin	12400	0
bin	12800	0
bin	13200	0
bin	13600	0
bin	14000	0
bin	14400	3
bin	14800	0
bin	15200	0
bin	15600	0
bin	16000	0
bin	16400	0
bin	16800	0
bin	17200	0
bin	17600	0
bin	18000	0
bin	18400	0
bin	18800	0
bin	19200	0
bin	19600	0
bin	20000	1
bin	20400	0
statistic STPRingNetwork.sw1.eth[2].mac utilization:histogram
field count 390
field mean 0.0006662564102564103
field stddev 0.002269616874432087
field min 0
field max 0.020320000000000005
field sum 0.25984
field sqrsum 0.0021769216000000007
attr interpolationmode linear
attr recordingmode histogram
attr source "100 * utilization(count(transmissionStarted) - count(transmissionEnded))"
attr title utilization
attr unit %
bin	-inf	0
bin	0	352
bin	4e-04	0
bin	8e-04	0
bin	0.0012000000000000001	0
bin	0.0016	0
bin	0.002	0
bin	0.0024000000000000002	0
bin	0.0028	0
bin	0.0032	0
bin	0.0036000000000000003	0
bin	0.004	0
bin	0.0044	0
bin	0.0048000000000000004	0
bin	0.005200000000000001	0
bin	0.0056	34
bin	0.006	0
bin	0.0064	0
bin	0.0068000000000000005	0
bin	0.007200000000000001	0
bin	0.007600000000000001	0
bin	0.008	0
bin	0.008400000000000001	0
bin	0.0088	0
bin	0.0092	0
bin	0.009600000000000001	0
bin	0.01	0
bin	0.010400000000000001	0
bin	0.0108	0
bin	0.011200000000000002	0
bin	0.011600000000000001	0
bin	0.012	0
bin	0.012400000000000001	0
bin	0.0128	0
bin	0.0132	0
bin	0.013600000000000001	0
bin	0.014000000000000002	0
bin	0.014400000000000001	3
bin	0.0148	0
bin	0.015200000000000002	0
bin	0.015600000000000003	0
bin	0.016	0
bin	0.0164	0
bin	0.016800000000000002	0
bin	0.0172	0
bin	0.0176	0
bin	0.018000000000000002	0
bin	0.0184	0
bin	0.0188	0
bin	0.019200000000000002	0
bin	0.019600000000000003	0
bin	0.02	1
bin	0.0204	0
scalar STPRingNetwork.sw1.eth[2].mac txPk:count 43
attr interpolationmode none
attr recordingmode count
attr source packetSentToLower
attr title "packets transmitted, count"
scalar STPRingNetwork.sw1.eth[2].mac txPk:sum(packetBytes) 2904
attr interpolationmode none
attr recordingmode sum(packetBytes)
attr source packetSentToLower
attr title "packets transmitted, sum(packetBytes)"
scalar STPRingNetwork.sw1.eth[2].mac packetReceivedFromUpper:count 43
attr interpolationmode none
attr recordingmode count
attr source packetReceivedFromUpper
attr title "packet bytes from higher layer, count"
scalar STPRingNetwork.sw1.eth[2].mac packetReceivedFromUpper:sum(packetBytes) 2600
attr interpolationmode none
attr recordingmode sum(packetBytes)
attr source packetReceivedFromUpper
attr title "packet bytes from higher layer, sum(packetBytes)"
scalar STPRingNetwork.sw1.eth[2].mac passedUpPk:count 5
attr interpolationmode none
attr recordingmode count
attr source packetSentToUpper
attr title "packets passed to higher layer, count"
scalar STPRingNetwork.sw1.eth[2].mac passedUpPk:sum(packetBytes) 472
attr interpolationmode none
attr recordingmode sum(packetBytes)
attr source packetSentToUpper
attr title "packets passed to higher layer, sum(packetBytes)"
scalar STPRingNetwork.sw1.eth[2].mac packetDropIncorrectlyReceived:count 0
attr interpolationmode none
attr recordingmode count
attr source packetDropReasonIsIncorrectlyReceived(packetDropped)
attr title "packet drop: incorrectly received, count"
scalar STPRingNetwork.sw1.eth[2].mac packetDropIncorrectlyReceived:sum(packetBytes) 0
attr interpolationmode none
attr recordingmode sum(packetBytes)
attr source packetDropReasonIsIncorrectlyReceived(packetDropped)
attr title "packet drop: incorrectly received, sum(packetBytes)"
scalar STPRingNetwork.sw1.eth[2].mac packetDropInterfaceDown:count 0
attr interpolationmode none
attr recordingmode count
attr source packetDropReasonIsInterfaceDown(packetDropped)
attr title "packet drop: interface down, count"
scalar STPRingNetwork.sw1.eth[2].mac packetDropInterfaceDown:sum(packetBytes) 0
attr interpolationmode none
attr recordingmode sum(packetBytes)
attr source packetDropReasonIsInterfaceDown(packetDropped)
attr title "packet drop: interface down, sum(packetBytes)"
scalar STPRingNetwork.sw1.eth[2].mac packetDropNotAddressedToUs:count 0
attr interpolationmode none
attr recordingmode count
attr source packetDropReasonIsNotAddressedToUs(packetDropped)
attr title "packet drop: not addressed to us, count"
scalar STPRingNetwork.sw1.eth[2].mac packetDropNotAddressedToUs:sum(packetBytes) 0
attr interpolationmode none
attr recordingmode sum(packetBytes)
attr source packetDropReasonIsNotAddressedToUs(packetDropped)
attr title "packet drop: not addressed to us, sum(packetBytes)"
scalar STPRingNetwork.sw1.eth[2].mac rxPausePkUnits:count 0
attr interpolationmode none
attr recordingmode count
attr title "pause units received, count"
scalar STPRingNetwork.sw1.eth[2].mac rxPausePkUnits:sum 0
attr interpolationmode none
attr recordingmode sum
attr title "pause units received, sum"
scalar STPRingNetwork.sw1.eth[2].mac txPausePkUnits:count 0
attr interpolationmode none
attr recordingmode count
attr title "pause units sent, count"
scalar STPRingNetwork.sw1.eth[2].mac txPausePkUnits:sum 0
attr interpolationmode none
attr recordingmode sum
attr title "pause units sent, sum"
scalar STPRingNetwork.sw1.eth[2].mac rxPkOk:count 5
attr interpolationmode none
attr recordingmode count
attr source rxPkOk
attr title "packets received OK, count"
scalar STPRingNetwork.sw1.eth[2].mac rxPkOk:sum(packetBytes) 472
attr interpolationmode none
attr recordingmode sum(packetBytes)
attr source rxPkOk
attr title "packets received OK, sum(packetBytes)"
par STPRingNetwork.sw1.eth[2] typename "\"inet.linklayer.ethernet.basic.EthernetInterface\""
par STPRingNetwork.sw1.eth[2] displayStringTextFormat "\"%a (%i)\\n%m\""
attr mutable ""
par STPRingNetwork.sw1.eth[2] recordPcap false
par STPRingNetwork.sw1.eth[2] numPcapRecorders 0
par STPRingNetwork.sw1.eth[2] interfaceTableModule "\"STPRingNetwork.sw1.interfaceTable\""
par STPRingNetwork.sw1.eth[2] protocol "\"ethernetmac\""
par STPRingNetwork.sw1.eth[2] address "\"0A-AA-00-00-00-03\""
attr mutable ""
par STPRingNetwork.sw1.eth[2] duplexMode true
par STPRingNetwork.sw1.eth[2] csmacdSupport false
par STPRingNetwork.sw1.eth[2] bitrate 0bps
attr unit bps
par STPRingNetwork.sw1.eth[2] fcsMode "\"declared\""
attr enum declared,computed
scalar STPRingNetwork.sw1.eth[2] packetDropInterfaceDown:count 0
attr interpolationmode none
attr recordingmode count
attr source packetDropReasonIsInterfaceDown(packetDropped)
attr title "packet drops: interface down, count"
scalar STPRingNetwork.sw1.eth[2] packetDropInterfaceDown:sum(packetBytes) 0
attr interpolationmode none
attr recordingmode sum(packetBytes)
attr source packetDropReasonIsInterfaceDown(packetDropped)
attr title "packet drops: interface down, sum(packetBytes)"
scalar STPRingNetwork.sw1.eth[2] packetDropNoCarrier:count 0
attr interpolationmode none
attr recordingmode count
attr source packetDropReasonIsNoCarrier(packetDropped)
attr title "packet drops: no carrier, count"
scalar STPRingNetwork.sw1.eth[2] packetDropNoCarrier:sum(packetBytes) 0
attr interpolationmode none
attr recordingmode sum(packetBytes)
attr source packetDropReasonIsNoCarrier(packetDropped)
attr title "packet drops: no carrier, sum(packetBytes)"
par STPRingNetwork.sw1 typename "\"inet.node.ethernet.EthernetSwitch\""
par STPRingNetwork.sw1 recordPcap false
par STPRingNetwork.sw1 numPcapRecorders 0
par STPRingNetwork.sw1 numApps 0
par STPRingNetwork.sw1 hasStatus false
par STPRingNetwork.sw1 hasStp true
par STPRingNetwork.sw1 hasMrp false
par STPRingNetwork.sw1 hasGptp false
par STPRingNetwork.sw1 hasCutthroughSwitching false
par STPRingNetwork.sw1 fcsMode "\"declared\""
attr enum declared,computed
par STPRingNetwork.sw1 spanningTreeProtocol "\"Stp\""
par STPRingNetwork.sw1 numEthInterfaces 0
par STPRingNetwork.sw2.eth[0].phys$o.channel typename "\"ned.IdealChannel\""
par STPRingNetwork.sw2.ethg$i[0].channel typename "\"ned.IdealChannel\""
par STPRingNetwork.sw2.eth[1].phys$o.channel typename "\"ned.IdealChannel\""
par STPRingNetwork.sw2.ethg$i[1].channel typename "\"ned.IdealChannel\""
par STPRingNetwork.sw2.macTable typename "\"inet.linklayer.ethernet.common.MacForwardingTable\""
par STPRingNetwork.sw2.macTable displayStringTextFormat "\"addr: %a\\nvlan: %v\""
attr mutable ""
par STPRingNetwork.sw2.macTable agingTime 120s
attr unit s
par STPRingNetwork.sw2.macTable forwardingTable []
attr mutable ""
par STPRingNetwork.sw2.macTable forwardingTableFile "\"\""
par STPRingNetwork.sw2.macTable interfaceTableModule "\"STPRingNetwork.sw2.interfaceTable\""
par STPRingNetwork.sw2.interfaceTable typename "\"inet.networklayer.common.InterfaceTable\""
par STPRingNetwork.sw2.interfaceTable displayStringTextFormat "\"\""
attr mutable ""
par STPRingNetwork.sw2.interfaceTable displayAddresses false
par STPRingNetwork.sw2.l2NodeConfigurator typename "\"inet.linklayer.configurator.common.L2NodeConfigurator\""
par STPRingNetwork.sw2.l2NodeConfigurator displayStringTextFormat "\"\""
attr mutable ""
par STPRingNetwork.sw2.l2NodeConfigurator interfaceTableModule "\"STPRingNetwork.sw2.interfaceTable\""
par STPRingNetwork.sw2.l2NodeConfigurator l2ConfiguratorModule "\"l2NetworkConfigurator\""
par STPRingNetwork.sw2.stp typename "\"inet.linklayer.ieee8021d.stp.Stp\""
par STPRingNetwork.sw2.stp displayStringTextFormat "\"\""
attr mutable ""
par STPRingNetwork.sw2.stp helloTime 2s
attr unit s
par STPRingNetwork.sw2.stp forwardDelay 15s
attr unit s
par STPRingNetwork.sw2.stp maxAge 20s
attr unit s
par STPRingNetwork.sw2.stp bridgePriority 32768
par STPRingNetwork.sw2.stp interfaceTableModule "\"STPRingNetwork.sw2.interfaceTable\""
par STPRingNetwork.sw2.stp macTableModule "\"STPRingNetwork.sw2.macTable\""
par STPRingNetwork.sw2.stp visualize true
par STPRingNetwork.sw2.sc typename "\"inet.common.MessageDispatcher\""
par STPRingNetwork.sw2.sc displayStringTextFormat "\"processed %p pk (%l)\""
attr mutable ""
par STPRingNetwork.sw2.sc interfaceTableModule "\"STPRingNetwork.sw2.interfaceTable\""
par STPRingNetwork.sw2.sc forwardServiceRegistration true
par STPRingNetwork.sw2.sc forwardProtocolRegistration true
par STPRingNetwork.sw2.sc interfaceMapping {}
par STPRingNetwork.sw2.sc serviceMapping {}
par STPRingNetwork.sw2.sc protocolMapping {}
par STPRingNetwork.sw2.llc typename "\"inet.linklayer.ieee8022.Ieee8022Llc\""
par STPRingNetwork.sw2.llc displayStringTextFormat "\"\""
attr mutable ""
par STPRingNetwork.sw2.llc registerProtocol true
par STPRingNetwork.sw2.cb typename "\"inet.common.MessageDispatcher\""
par STPRingNetwork.sw2.cb displayStringTextFormat "\"processed %p pk (%l)\""
attr mutable ""
par STPRingNetwork.sw2.cb interfaceTableModule "\"STPRingNetwork.sw2.interfaceTable\""
par STPRingNetwork.sw2.cb forwardServiceRegistration true
par STPRingNetwork.sw2.cb forwardProtocolRegistration true
par STPRingNetwork.sw2.cb interfaceMapping {}
par STPRingNetwork.sw2.cb serviceMapping {}
par STPRingNetwork.sw2.cb protocolMapping {}
par STPRingNetwork.sw2.bridging typename "\"inet.linklayer.ieee8021d.relay.Ieee8021dRelay\""
par STPRingNetwork.sw2.bridging displayStringTextFormat "\"proc: %p\\ndisc: %d\""
attr mutable ""
par STPRingNetwork.sw2.bridging macTableModule "\"STPRingNetwork.sw2.macTable\""
par STPRingNetwork.sw2.bridging interfaceTableModule "\"STPRingNetwork.sw2.interfaceTable\""
scalar STPRingNetwork.sw2.bridging "processed frames" 0
scalar STPRingNetwork.sw2.bridging "discarded frames" 0
scalar STPRingNetwork.sw2.bridging "number of received BPDUs from STP module" 0
scalar STPRingNetwork.sw2.bridging "number of received frames from network (including BPDUs)" 54
scalar STPRingNetwork.sw2.bridging "number of dropped frames (including BPDUs)" 0
scalar STPRingNetwork.sw2.bridging "number of delivered BPDUs to the STP module" 0
scalar STPRingNetwork.sw2.bridging "number of dispatched BPDU frames to the network" 0
scalar STPRingNetwork.sw2.bridging "number of dispatched non-BDPU frames to the network" 0
scalar STPRingNetwork.sw2.bridging packetDropped:count 0
attr interpolationmode none
attr recordingmode count
attr title "packets dropped, count"
scalar STPRingNetwork.sw2.bridging packetDropped:sum(packetBytes) 0
attr interpolationmode none
attr recordingmode sum(packetBytes)
attr title "packets dropped, sum(packetBytes)"
par STPRingNetwork.sw2.bl typename "\"inet.common.MessageDispatcher\""
par STPRingNetwork.sw2.bl displayStringTextFormat "\"processed %p pk (%l)\""
attr mutable ""
par STPRingNetwork.sw2.bl interfaceTableModule "\"STPRingNetwork.sw2.interfaceTable\""
par STPRingNetwork.sw2.bl forwardServiceRegistration true
par STPRingNetwork.sw2.bl forwardProtocolRegistration true
par STPRingNetwork.sw2.bl interfaceMapping {}
par STPRingNetwork.sw2.bl serviceMapping {}
par STPRingNetwork.sw2.bl protocolMapping {}
par STPRingNetwork.sw2.ethernet typename "\"inet.linklayer.ethernet.basic.EthernetEncapsulation\""
par STPRingNetwork.sw2.ethernet displayStringTextFormat "\"\""
attr mutable ""
par STPRingNetwork.sw2.ethernet registerProtocol true
par STPRingNetwork.sw2.ethernet interfaceTableModule "\"STPRingNetwork.sw2.interfaceTable\""
par STPRingNetwork.sw2.ethernet fcsMode "\"declared\""
attr enum declared,computed
par STPRingNetwork.sw2.ethernet stopOperationExtraTime -1s
attr unit s
par STPRingNetwork.sw2.ethernet stopOperationTimeout 2s
attr unit s
scalar STPRingNetwork.sw2.ethernet decapPk:count 54
attr interpolationmode none
attr recordingmode count
attr source decapPk
attr title "packets decapsulated, count"
scalar STPRingNetwork.sw2.ethernet decapPk:sum(packetBytes) 2405
attr interpolationmode none
attr recordingmode sum(packetBytes)
attr source decapPk
attr title "packets decapsulated, sum(packetBytes)"
scalar STPRingNetwork.sw2.ethernet encapPk:count 58
attr interpolationmode none
attr recordingmode count
attr source encapPk
attr title "packets encapsulated, count"
scalar STPRingNetwork.sw2.ethernet encapPk:sum(packetBytes) 2495
attr interpolationmode none
attr recordingmode sum(packetBytes)
attr source encapPk
attr title "packets encapsulated, sum(packetBytes)"
scalar STPRingNetwork.sw2.ethernet pauseSent:count 0
attr recordingmode count
attr title "pause sent, count"
scalar STPRingNetwork.sw2.ethernet pauseSent:sum 0
attr recordingmode sum
attr title "pause sent, sum"
par STPRingNetwork.sw2.li typename "\"inet.common.MessageDispatcher\""
par STPRingNetwork.sw2.li displayStringTextFormat "\"processed %p pk (%l)\""
attr mutable ""
par STPRingNetwork.sw2.li interfaceTableModule "\"STPRingNetwork.sw2.interfaceTable\""
par STPRingNetwork.sw2.li forwardServiceRegistration true
par STPRingNetwork.sw2.li forwardProtocolRegistration true
par STPRingNetwork.sw2.li interfaceMapping {}
par STPRingNetwork.sw2.li serviceMapping {}
par STPRingNetwork.sw2.li protocolMapping {}
par STPRingNetwork.sw2.eth[0].mac.phys$o.channel typename "\"ned.IdealChannel\""
par STPRingNetwork.sw2.eth[0].phys$i.channel typename "\"ned.IdealChannel\""
par STPRingNetwork.sw2.eth[0].upperLayerIn.channel typename "\"ned.IdealChannel\""
par STPRingNetwork.sw2.eth[0].mac.upperLayerOut.channel typename "\"ned.IdealChannel\""
par STPRingNetwork.sw2.eth[0].queue typename "\"inet.linklayer.ethernet.common.EthernetQueue\""
par STPRingNetwork.sw2.eth[0].queue displayStringTextFormat "\"contains %p pk (%l) pushed %u\\npulled %o removed %r dropped %d\""
attr mutable ""
par STPRingNetwork.sw2.eth[0].queue packetCapacity 1000
par STPRingNetwork.sw2.eth[0].queue dataCapacity -1b
attr unit b
par STPRingNetwork.sw2.eth[0].queue dropperClass "\"inet::queueing::PacketAtCollectionEndDropper\""
par STPRingNetwork.sw2.eth[0].queue comparatorClass "\"inet::EthernetFrameTypeComparator\""
par STPRingNetwork.sw2.eth[0].queue bufferModule "\"\""
scalar STPRingNetwork.sw2.eth[0].queue queueLength:last 0
attr autoWarmupFilter false
attr interpolationmode sample-hold
attr recordingmode last
attr source "warmup(atomic(constant0(packetPushEnded) + count(packetPushStarted) - count(packetPulled) - count(packetRemoved) - count(packetDropped)))"
attr title "queue length, last"
attr unit pk
scalar STPRingNetwork.sw2.eth[0].queue queueLength:max 0
attr autoWarmupFilter false
attr interpolationmode sample-hold
attr recordingmode max
attr source "warmup(atomic(constant0(packetPushEnded) + count(packetPushStarted) - count(packetPulled) - count(packetRemoved) - count(packetDropped)))"
attr title "queue length, max"
attr unit pk
scalar STPRingNetwork.sw2.eth[0].queue queueLength:timeavg 0
attr autoWarmupFilter false
attr interpolationmode sample-hold
attr recordingmode timeavg
attr source "warmup(atomic(constant0(packetPushEnded) + count(packetPushStarted) - count(packetPulled) - count(packetRemoved) - count(packetDropped)))"
attr title "queue length, timeavg"
attr unit pk
scalar STPRingNetwork.sw2.eth[0].queue queueBitLength:last 0
attr autoWarmupFilter false
attr interpolationmode sample-hold
attr recordingmode last
attr source "warmup(atomic(constant0(packetPushEnded) + sum(packetLength(packetPushStarted)) - sum(packetLength(packetPulled)) - sum(packetLength(packetRemoved)) - sum(packetLength(packetDropped))))"
attr title "queue bit length, last"
attr unit b
scalar STPRingNetwork.sw2.eth[0].queue queueBitLength:max 0
attr autoWarmupFilter false
attr interpolationmode sample-hold
attr recordingmode max
attr source "warmup(atomic(constant0(packetPushEnded) + sum(packetLength(packetPushStarted)) - sum(packetLength(packetPulled)) - sum(packetLength(packetRemoved)) - sum(packetLength(packetDropped))))"
attr title "queue bit length, max"
attr unit b
scalar STPRingNetwork.sw2.eth[0].queue queueBitLength:timeavg 0
attr autoWarmupFilter false
attr interpolationmode sample-hold
attr recordingmode timeavg
attr source "warmup(atomic(constant0(packetPushEnded) + sum(packetLength(packetPushStarted)) - sum(packetLength(packetPulled)) - sum(packetLength(packetRemoved)) - sum(packetLength(packetDropped))))"
attr title "queue bit length, timeavg"
attr unit b
statistic STPRingNetwork.sw2.eth[0].queue queueingTime:histogram
field count 9
field mean 0
field stddev 0
field min 0
field max 0
field sum 0
field sqrsum 0
attr interpolationmode none
attr recordingmode histogram
attr source queueingTime(packetPulled)
attr title "queueing times"
attr unit s
bin	-inf	0
bin	-0.5	0
bin	-0.48	0
bin	-0.46	0
bin	-0.44	0
bin	-0.42	0
bin	-0.4	0
bin	-0.38	0
bin	-0.36	0
bin	-0.33999999999999997	0
bin	-0.32	0
bin	-0.3	0
bin	-0.28	0
bin	-0.26	0
bin	-0.24	0
bin	-0.21999999999999997	0
bin	-0.2	0
bin	-0.18	0
bin	-0.15999999999999998	0
bin	-0.14	0
bin	-0.12	0
bin	-0.09999999999999998	0
bin	-0.08000000000000002	0
bin	-0.06	0
bin	-0.03999999999999998	0
bin	-0.020000000000000018	0
bin	0	9
bin	0.020000000000000018	0
bin	0.040000000000000036	0
bin	0.06000000000000005	0
bin	0.07999999999999996	0
bin	0.09999999999999998	0
bin	0.12	0
bin	0.14	0
bin	0.16000000000000003	0
bin	0.18000000000000005	0
bin	0.20000000000000007	0
bin	0.21999999999999997	0
bin	0.24	0
bin	0.26	0
bin	0.28	0
bin	0.30000000000000004	0
bin	0.32000000000000006	0
bin	0.33999999999999997	0
bin	0.36	0
bin	0.38	0
bin	0.4	0
bin	0.42000000000000004	0
bin	0.44000000000000006	0
bin	0.45999999999999996	0
bin	0.48	0
bin	0.5	0
scalar STPRingNetwork.sw2.eth[0].queue outgoingPackets:count 9
attr recordingmode count
attr source packetPulled
attr title "outgoing packets, count"
attr unit pk
scalar STPRingNetwork.sw2.eth[0].queue outgoingPacketLengths:sum 4824
attr interpolationmode none
attr recordingmode sum
attr source packetLength(packetPulled)
attr title "outgoing packet lengths, sum"
attr unit b
statistic STPRingNetwork.sw2.eth[0].queue outgoingPacketLengths:histogram
field count 9
field mean 536
field stddev 287.36040089058895
field min 200
field max 816
field sum 4824
field sqrsum 3246272
attr interpolationmode none
attr recordingmode histogram
attr source packetLength(packetPulled)
attr title "outgoing packet lengths"
attr unit b
bin	-inf	0
bin	40	0
bin	60	0
bin	80	0
bin	100	0
bin	120	0
bin	140	0
bin	160	0
bin	180	0
bin	200	3
bin	220	0
bin	240	0
bin	260	0
bin	280	0
bin	300	0
bin	320	0
bin	340	0
bin	360	0
bin	380	0
bin	400	0
bin	420	0
bin	440	1
bin	460	0
bin	480	0
bin	500	1
bin	520	0
bin	540	0
bin	560	0
bin	580	0
bin	600	0
bin	620	0
bin	640	0
bin	660	0
bin	680	0
bin	700	0
bin	720	0
bin	740	0
bin	760	0
bin	780	0
bin	800	4
bin	820	0
bin	840	0
bin	860	0
bin	880	0
bin	900	0
bin	920	0
bin	940	0
bin	960	0
bin	980	0
statistic STPRingNetwork.sw2.eth[0].queue flowQueueingTime:histogram
field count 0
field mean nan
field stddev nan
field min nan
field max nan
field sum 0
field sqrsum 0
attr interpolationmode none
attr recordingmode histogram
attr source queueingTime(demuxFlow(packetPulled))
attr title "flow queueing times"
attr unit s
bin	-inf	0
bin	0	0
bin	1	0
[...]
par STPRingNetwork.host2.eth[0] address "\"0A-AA-00-00-00-0C\""
attr mutable ""
par STPRingNetwork.host2.eth[0] duplexMode true
par STPRingNetwork.host2.eth[0] csmacdSupport false
par STPRingNetwork.host2.eth[0] bitrate 0bps
attr unit bps
par STPRingNetwork.host2.eth[0] fcsMode "\"declared\""
attr enum declared,computed
scalar STPRingNetwork.host2.eth[0] packetDropInterfaceDown:count 0
attr interpolationmode none
attr recordingmode count
attr source packetDropReasonIsInterfaceDown(packetDropped)
attr title "packet drops: interface down, count"
scalar STPRingNetwork.host2.eth[0] packetDropInterfaceDown:sum(packetBytes) 0
attr interpolationmode none
attr recordingmode sum(packetBytes)
attr source packetDropReasonIsInterfaceDown(packetDropped)
attr title "packet drops: interface down, sum(packetBytes)"
scalar STPRingNetwork.host2.eth[0] packetDropNoCarrier:count 0
attr interpolationmode none
attr recordingmode count
attr source packetDropReasonIsNoCarrier(packetDropped)
attr title "packet drops: no carrier, count"
scalar STPRingNetwork.host2.eth[0] packetDropNoCarrier:sum(packetBytes) 0
attr interpolationmode none
attr recordingmode sum(packetBytes)
attr source packetDropReasonIsNoCarrier(packetDropped)
attr title "packet drops: no carrier, sum(packetBytes)"
par STPRingNetwork.host2.ipv4.transportIn.channel typename "\"ned.IdealChannel\""
par STPRingNetwork.host2.ipv4.up.out[0].channel typename "\"ned.IdealChannel\""
par STPRingNetwork.host2.ipv4.lp.out[2].channel typename "\"ned.IdealChannel\""
par STPRingNetwork.host2.ipv4.ifIn.channel typename "\"ned.IdealChannel\""
par STPRingNetwork.host2.ipv4.configurator typename "\"inet.networklayer.configurator.ipv4.Ipv4NodeConfigurator\""
par STPRingNetwork.host2.ipv4.configurator displayStringTextFormat "\"\""
attr mutable ""
par STPRingNetwork.host2.ipv4.configurator interfaceTableModule "\"STPRingNetwork.host2.interfaceTable\""
par STPRingNetwork.host2.ipv4.configurator routingTableModule "\"STPRingNetwork.host2.ipv4.routingTable\""
par STPRingNetwork.host2.ipv4.configurator networkConfiguratorModule "\"configurator\""
par STPRingNetwork.host2.ipv4.configurator configureRoutingTable true
par STPRingNetwork.host2.ipv4.routingTable typename "\"inet.networklayer.ipv4.Ipv4RoutingTable\""
par STPRingNetwork.host2.ipv4.routingTable displayStringTextFormat "\"\""
attr mutable ""
par STPRingNetwork.host2.ipv4.routingTable interfaceTableModule "\"STPRingNetwork.host2.interfaceTable\""
par STPRingNetwork.host2.ipv4.routingTable routerId "\"auto\""
par STPRingNetwork.host2.ipv4.routingTable netmaskRoutes "\"*\""
par STPRingNetwork.host2.ipv4.routingTable forwarding false
par STPRingNetwork.host2.ipv4.routingTable multicastForwarding false
par STPRingNetwork.host2.ipv4.routingTable useAdminDist false
par STPRingNetwork.host2.ipv4.routingTable routingFile "\"\""
par STPRingNetwork.host2.ipv4.natTable typename "\"inet.networklayer.ipv4.Ipv4NatTable\""
par STPRingNetwork.host2.ipv4.natTable displayStringTextFormat "\"\""
attr mutable ""
par STPRingNetwork.host2.ipv4.natTable networkProtocolModule "\"^.ip\""
par STPRingNetwork.host2.ipv4.natTable config "xml('<config/>\\n')"
par STPRingNetwork.host2.ipv4.up typename "\"inet.common.MessageDispatcher\""
par STPRingNetwork.host2.ipv4.up displayStringTextFormat "\"processed %p pk (%l)\""
attr mutable ""
par STPRingNetwork.host2.ipv4.up interfaceTableModule "\"STPRingNetwork.host2.interfaceTable\""
par STPRingNetwork.host2.ipv4.up forwardServiceRegistration true
par STPRingNetwork.host2.ipv4.up forwardProtocolRegistration true
par STPRingNetwork.host2.ipv4.up interfaceMapping {}
par STPRingNetwork.host2.ipv4.up serviceMapping {}
par STPRingNetwork.host2.ipv4.up protocolMapping {}
par STPRingNetwork.host2.ipv4.igmp typename "\"inet.networklayer.ipv4.Igmpv2\""
par STPRingNetwork.host2.ipv4.igmp displayStringTextFormat "\"\""
attr mutable ""
par STPRingNetwork.host2.ipv4.igmp interfaceTableModule "\"STPRingNetwork.host2.interfaceTable\""
par STPRingNetwork.host2.ipv4.igmp routingTableModule "\"STPRingNetwork.host2.ipv4.routingTable\""
par STPRingNetwork.host2.ipv4.igmp checksumMode "\"declared\""
attr enum declared,computed
par STPRingNetwork.host2.ipv4.igmp enabled true
par STPRingNetwork.host2.ipv4.igmp robustnessVariable 2
par STPRingNetwork.host2.ipv4.igmp queryInterval 125s
attr unit s
par STPRingNetwork.host2.ipv4.igmp queryResponseInterval 10s
attr unit s
par STPRingNetwork.host2.ipv4.igmp groupMembershipInterval 260s
attr unit s
par STPRingNetwork.host2.ipv4.igmp otherQuerierPresentInterval 255s
attr unit s
par STPRingNetwork.host2.ipv4.igmp startupQueryInterval 31.25s
attr unit s
par STPRingNetwork.host2.ipv4.igmp startupQueryCount 2
par STPRingNetwork.host2.ipv4.igmp lastMemberQueryInterval 1s
attr unit s
par STPRingNetwork.host2.ipv4.igmp lastMemberQueryCount 2
par STPRingNetwork.host2.ipv4.igmp unsolicitedReportInterval 10s
attr unit s
par STPRingNetwork.host2.ipv4.icmp typename "\"inet.networklayer.ipv4.Icmp\""
par STPRingNetwork.host2.ipv4.icmp displayStringTextFormat "\"\""
attr mutable ""
par STPRingNetwork.host2.ipv4.icmp interfaceTableModule "\"STPRingNetwork.host2.interfaceTable\""
par STPRingNetwork.host2.ipv4.icmp routingTableModule "\"STPRingNetwork.host2.ipv4.routingTable\""
par STPRingNetwork.host2.ipv4.icmp checksumMode "\"declared\""
attr enum declared,computed
attr mutable ""
par STPRingNetwork.host2.ipv4.icmp quoteLength 8B
attr mutable ""
attr unit B
par STPRingNetwork.host2.ipv4.mp typename "\"inet.common.MessageDispatcher\""
par STPRingNetwork.host2.ipv4.mp displayStringTextFormat "\"processed %p pk (%l)\""
attr mutable ""
par STPRingNetwork.host2.ipv4.mp interfaceTableModule "\"STPRingNetwork.host2.interfaceTable\""
par STPRingNetwork.host2.ipv4.mp forwardServiceRegistration true
par STPRingNetwork.host2.ipv4.mp forwardProtocolRegistration true
par STPRingNetwork.host2.ipv4.mp interfaceMapping {}
par STPRingNetwork.host2.ipv4.mp serviceMapping {}
par STPRingNetwork.host2.ipv4.mp protocolMapping {}
par STPRingNetwork.host2.ipv4.ip typename "\"inet.networklayer.ipv4.Ipv4\""
par STPRingNetwork.host2.ipv4.ip displayStringTextFormat "\"\""
attr mutable ""
par STPRingNetwork.host2.ipv4.ip interfaceTableModule "\"STPRingNetwork.host2.interfaceTable\""
par STPRingNetwork.host2.ipv4.ip routingTableModule "\"STPRingNetwork.host2.ipv4.routingTable\""
par STPRingNetwork.host2.ipv4.ip arpModule "\"STPRingNetwork.host2.ipv4.arp\""
par STPRingNetwork.host2.ipv4.ip icmpModule "\"STPRingNetwork.host2.ipv4.icmp\""
par STPRingNetwork.host2.ipv4.ip checksumMode "\"declared\""
attr enum declared,computed
par STPRingNetwork.host2.ipv4.ip timeToLive 32
par STPRingNetwork.host2.ipv4.ip multicastTimeToLive 32
par STPRingNetwork.host2.ipv4.ip fragmentTimeout 60s
attr unit s
par STPRingNetwork.host2.ipv4.ip limitedBroadcast false
par STPRingNetwork.host2.ipv4.ip directBroadcastInterfaces "\"\""
par STPRingNetwork.host2.ipv4.ip enableLocalOutMulticastRouting false
par STPRingNetwork.host2.ipv4.ip enableTimestampOption false
par STPRingNetwork.host2.ipv4.ip maxLifetime -1s
attr unit s
scalar STPRingNetwork.host2.ipv4.ip packetDropAddressResolutionFailed:count 0
attr interpolationmode none
attr recordingmode count
attr source packetDropReasonIsAddressResolutionFailed(packetDropped)
attr title "packet drop: address resolution failed, count"
scalar STPRingNetwork.host2.ipv4.ip packetDropAddressResolutionFailed:sum(packetBytes) 0
attr interpolationmode none
attr recordingmode sum(packetBytes)
attr source packetDropReasonIsAddressResolutionFailed(packetDropped)
attr title "packet drop: address resolution failed, sum(packetBytes)"
scalar STPRingNetwork.host2.ipv4.ip packetDropHopLimitReached:count 0
attr interpolationmode none
attr recordingmode count
attr source packetDropReasonIsHopLimitReached(packetDropped)
attr title "packet drop: hop limit reached, count"
scalar STPRingNetwork.host2.ipv4.ip packetDropHopLimitReached:sum(packetBytes) 0
attr interpolationmode none
attr recordingmode sum(packetBytes)
attr source packetDropReasonIsHopLimitReached(packetDropped)
attr title "packet drop: hop limit reached, sum(packetBytes)"
scalar STPRingNetwork.host2.ipv4.ip packetDropForwardingDisabled:count 0
attr interpolationmode none
attr recordingmode count
attr source packetDropReasonIsForwardingDisabled(packetDropped)
attr title "packet drop: forwarding disabled, count"
scalar STPRingNetwork.host2.ipv4.ip packetDropForwardingDisabled:sum(packetBytes) 0
attr interpolationmode none
attr recordingmode sum(packetBytes)
attr source packetDropReasonIsForwardingDisabled(packetDropped)
attr title "packet drop: forwarding disabled, sum(packetBytes)"
scalar STPRingNetwork.host2.ipv4.ip packetDropLifetimeExpired:count 0
attr interpolationmode none
attr recordingmode count
attr source packetDropReasonIsLifetimeExpired(packetDropped)
attr title "packet drop: lifetime expired, count"
scalar STPRingNetwork.host2.ipv4.ip packetDropLifetimeExpired:sum(packetBytes) 0
attr interpolationmode none
attr recordingmode sum(packetBytes)
attr source packetDropReasonIsLifetimeExpired(packetDropped)
attr title "packet drop: lifetime expired, sum(packetBytes)"
scalar STPRingNetwork.host2.ipv4.ip packetDropNoInterfaceFound:count 0
attr interpolationmode none
attr recordingmode count
attr source packetDropReasonIsNoInterfaceFound(packetDropped)
attr title "packet drop: no interface found, count"
scalar STPRingNetwork.host2.ipv4.ip packetDropNoInterfaceFound:sum(packetBytes) 0
attr interpolationmode none
attr recordingmode sum(packetBytes)
attr source packetDropReasonIsNoInterfaceFound(packetDropped)
attr title "packet drop: no interface found, sum(packetBytes)"
scalar STPRingNetwork.host2.ipv4.ip packetDropNoRouteFound:count 0
attr interpolationmode none
attr recordingmode count
attr source packetDropReasonIsNoRouteFound(packetDropped)
attr title "packet drop: no route found, count"
scalar STPRingNetwork.host2.ipv4.ip packetDropNoRouteFound:sum(packetBytes) 0
attr interpolationmode none
attr recordingmode sum(packetBytes)
attr source packetDropReasonIsNoRouteFound(packetDropped)
attr title "packet drop: no route found, sum(packetBytes)"
scalar STPRingNetwork.host2.ipv4.ip packetDropUndefined:count 0
attr interpolationmode none
attr recordingmode count
attr source packetDropReasonIsUndefined(packetDropped)
attr title "packet drop: undefined, count"
scalar STPRingNetwork.host2.ipv4.ip packetDropUndefined:sum(packetBytes) 0
attr interpolationmode none
attr recordingmode sum(packetBytes)
attr source packetDropReasonIsUndefined(packetDropped)
attr title "packet drop: undefined, sum(packetBytes)"
par STPRingNetwork.host2.ipv4.arp typename "\"inet.networklayer.arp.ipv4.Arp\""
par STPRingNetwork.host2.ipv4.arp displayStringTextFormat "\"\""
attr mutable ""
par STPRingNetwork.host2.ipv4.arp interfaceTableModule "\"STPRingNetwork.host2.interfaceTable\""
par STPRingNetwork.host2.ipv4.arp routingTableModule "\"STPRingNetwork.host2.ipv4.routingTable\""
par STPRingNetwork.host2.ipv4.arp retryTimeout 1s
attr unit s
par STPRingNetwork.host2.ipv4.arp retryCount 3
par STPRingNetwork.host2.ipv4.arp cacheTimeout 120s
attr unit s
par STPRingNetwork.host2.ipv4.arp proxyArpInterfaces "\"\""
scalar STPRingNetwork.host2.ipv4.arp arpReplySent:count 1
attr recordingmode count
attr source arpReplySent
attr title "ARP replies sent, count"
scalar STPRingNetwork.host2.ipv4.arp arpReplySent:sum(packetBytes) 28
attr recordingmode sum(packetBytes)
attr source arpReplySent
attr title "ARP replies sent, sum(packetBytes)"
scalar STPRingNetwork.host2.ipv4.arp arpRequestSent:count 0
attr recordingmode count
attr source arpRequestSent
attr title "ARP request sent, count"
scalar STPRingNetwork.host2.ipv4.arp arpRequestSent:sum(packetBytes) 0
attr recordingmode sum(packetBytes)
attr source arpRequestSent
attr title "ARP request sent, sum(packetBytes)"
scalar STPRingNetwork.host2.ipv4.arp arpResolutionFailed:count 0
attr recordingmode count
attr title "ARP failed resolutions, count"
scalar STPRingNetwork.host2.ipv4.arp arpResolutionCompleted:count 1
attr recordingmode count
attr title "ARP completed resolutions, count"
scalar STPRingNetwork.host2.ipv4.arp arpResolutionInitiated:count 0
attr recordingmode count
attr title "ARP initiated resolutions, count"
par STPRingNetwork.host2.ipv4.lp typename "\"inet.common.MessageDispatcher\""
par STPRingNetwork.host2.ipv4.lp displayStringTextFormat "\"processed %p pk (%l)\""
attr mutable ""
par STPRingNetwork.host2.ipv4.lp interfaceTableModule "\"STPRingNetwork.host2.interfaceTable\""
par STPRingNetwork.host2.ipv4.lp forwardServiceRegistration true
par STPRingNetwork.host2.ipv4.lp forwardProtocolRegistration true
par STPRingNetwork.host2.ipv4.lp interfaceMapping {}
par STPRingNetwork.host2.ipv4.lp serviceMapping {}
par STPRingNetwork.host2.ipv4.lp protocolMapping {}
par STPRingNetwork.host2.ipv4 typename "\"inet.networklayer.ipv4.Ipv4NetworkLayer\""
par STPRingNetwork.host2.ipv4 displayStringTextFormat "\"%i\""
attr mutable ""
par STPRingNetwork.host2.ipv4 forwarding false
par STPRingNetwork.host2.ipv4 multicastForwarding false
par STPRingNetwork.host2.ipv4 hasIpsec false
par STPRingNetwork.host2.ipv4 interfaceTableModule "\"STPRingNetwork.host2.interfaceTable\""
par STPRingNetwork.host2.nl typename "\"inet.common.MessageDispatcher\""
par STPRingNetwork.host2.nl displayStringTextFormat "\"processed %p pk (%l)\""
attr mutable ""
par STPRingNetwork.host2.nl interfaceTableModule "\"STPRingNetwork.host2.interfaceTable\""
par STPRingNetwork.host2.nl forwardServiceRegistration true
par STPRingNetwork.host2.nl forwardProtocolRegistration true
par STPRingNetwork.host2.nl interfaceMapping {}
par STPRingNetwork.host2.nl serviceMapping {}
par STPRingNetwork.host2.nl protocolMapping {}
par STPRingNetwork.host2.udp typename "\"inet.transportlayer.udp.Udp\""
par STPRingNetwork.host2.udp displayStringTextFormat "\"\""
attr mutable ""
par STPRingNetwork.host2.udp interfaceTableModule "\"STPRingNetwork.host2.interfaceTable\""
par STPRingNetwork.host2.udp icmpModule "\"^.ipv4.icmp\""
par STPRingNetwork.host2.udp icmpv6Module "\"^.ipv6.icmpv6\""
par STPRingNetwork.host2.udp checksumMode "\"declared\""
attr enum disabled,declared,computed
par STPRingNetwork.host2.udp defaultMulticastLoop true
scalar STPRingNetwork.host2.udp packetReceived:count 0
attr interpolationmode none
attr recordingmode count
attr source packetReceived
attr title "packets received, count"
scalar STPRingNetwork.host2.udp packetReceived:sum(packetBytes) 0
attr interpolationmode none
attr recordingmode sum(packetBytes)
attr source packetReceived
attr title "packets received, sum(packetBytes)"
scalar STPRingNetwork.host2.udp packetSent:count 0
attr interpolationmode none
attr recordingmode count
attr source packetSent
attr title "packets sent, count"
scalar STPRingNetwork.host2.udp packetSent:sum(packetBytes) 0
attr interpolationmode none
attr recordingmode sum(packetBytes)
attr source packetSent
attr title "packets sent, sum(packetBytes)"
scalar STPRingNetwork.host2.udp passedUpPk:count 0
attr interpolationmode none
attr recordingmode count
attr source packetSentToUpper
attr title "packets passed up, count"
scalar STPRingNetwork.host2.udp droppedPkWrongPort:count 0
attr interpolationmode none
attr recordingmode count
attr source packetDropReasonIsNoPortFound(packetDropped)
attr title "packets dropped (wrong port), count"
scalar STPRingNetwork.host2.udp droppedPkBadChecksum:count 0
attr interpolationmode none
attr recordingmode count
attr source packetDropReasonIsIncorrectlyReceived(packetDropped)
attr title "packets dropped (checksum error), count"
par STPRingNetwork.host2.tcp typename "\"inet.transportlayer.tcp.Tcp\""
par STPRingNetwork.host2.tcp displayStringTextFormat "\"\""
attr mutable ""
par STPRingNetwork.host2.tcp checksumMode "\"declared\""
attr enum declared,computed
par STPRingNetwork.host2.tcp advertisedWindow 7504
par STPRingNetwork.host2.tcp delayedAcksEnabled false
par STPRingNetwork.host2.tcp nagleEnabled true
par STPRingNetwork.host2.tcp limitedTransmitEnabled false
par STPRingNetwork.host2.tcp increasedIWEnabled false
par STPRingNetwork.host2.tcp sackSupport false
par STPRingNetwork.host2.tcp windowScalingSupport false
par STPRingNetwork.host2.tcp windowScalingFactor -1
par STPRingNetwork.host2.tcp timestampSupport false
par STPRingNetwork.host2.tcp mss 536
par STPRingNetwork.host2.tcp msl 120s
attr unit s
par STPRingNetwork.host2.tcp tcpAlgorithmClass "\"TcpReno\""
attr examples TcpVegas,TcpWestwood,DcTcp,TcpNewReno,TcpReno,TcpTahoe,TcpNoCongestionControl
par STPRingNetwork.host2.tcp dupthresh 3
par STPRingNetwork.host2.tcp initialSsthresh 4294967295
par STPRingNetwork.host2.tcp stopOperationExtraTime 0s
attr unit s
par STPRingNetwork.host2.tcp stopOperationTimeout 2s
attr unit s
par STPRingNetwork.host2.tcp ecnWillingness false
par STPRingNetwork.host2.tcp dctcpGamma 0.0625
par STPRingNetwork.host2.tn typename "\"inet.common.MessageDispatcher\""
par STPRingNetwork.host2.tn displayStringTextFormat "\"processed %p pk (%l)\""
attr mutable ""
par STPRingNetwork.host2.tn interfaceTableModule "\"STPRingNetwork.host2.interfaceTable\""
par STPRingNetwork.host2.tn forwardServiceRegistration true
par STPRingNetwork.host2.tn forwardProtocolRegistration true
par STPRingNetwork.host2.tn interfaceMapping {}
par STPRingNetwork.host2.tn serviceMapping {}
par STPRingNetwork.host2.tn protocolMapping {}
par STPRingNetwork.host2.at typename "\"inet.common.MessageDispatcher\""
par STPRingNetwork.host2.at displayStringTextFormat "\"processed %p pk (%l)\""
attr mutable ""
par STPRingNetwork.host2.at interfaceTableModule "\"STPRingNetwork.host2.interfaceTable\""
par STPRingNetwork.host2.at forwardServiceRegistration true
par STPRingNetwork.host2.at forwardProtocolRegistration true
par STPRingNetwork.host2.at interfaceMapping {}
par STPRingNetwork.host2.at serviceMapping {}
par STPRingNetwork.host2.at protocolMapping {}
par STPRingNetwork.host2 typename "\"inet.node.inet.StandardHost\""
par STPRingNetwork.host2 displayStringTextFormat "\"\""
attr mutable ""
par STPRingNetwork.host2 hasStatus false
par STPRingNetwork.host2 hasEnvironment false
par STPRingNetwork.host2 osgModel "\"\""
par STPRingNetwork.host2 osgModelColor "\"\""
par STPRingNetwork.host2 canvasImage "\"\""
par STPRingNetwork.host2 canvasImageColor "\"\""
par STPRingNetwork.host2 recordPcap false
par STPRingNetwork.host2 numPcapRecorders 0
par STPRingNetwork.host2 numLoInterfaces 1
par STPRingNetwork.host2 numWlanInterfaces 0
par STPRingNetwork.host2 numEthInterfaces 0
par STPRingNetwork.host2 numPppInterfaces 0
par STPRingNetwork.host2 numTunInterfaces 0
par STPRingNetwork.host2 numVirtInterfaces 0
par STPRingNetwork.host2 fcsMode "\"declared\""
attr enum declared,computed
par STPRingNetwork.host2 hasIpv4 true
par STPRingNetwork.host2 hasIpv6 false
par STPRingNetwork.host2 hasGn false
par STPRingNetwork.host2 forwarding false
par STPRingNetwork.host2 multicastForwarding false
par STPRingNetwork.host2 hasUdp true
par STPRingNetwork.host2 hasTcp true
par STPRingNetwork.host2 hasSctp false
par STPRingNetwork.host2 hasQuic false
par STPRingNetwork.host2 numApps 0
par STPRingNetwork.scenarioManager typename "\"inet.common.scenario.ScenarioManager\""
par STPRingNetwork.scenarioManager displayStringTextFormat "\"total %c changes, %l left\\nnext at: %t\""
attr mutable ""
par STPRingNetwork.scenarioManager script "xml('<scenario>\\n  <at t=\"50\">\\n    <set-channel-param par=\"disabled\" src-gate=\"ethg$o[0]\" src-module=\"sw1\" value=\"true\"/>\\n    <set-channel-param par=\"disabled\" src-gate=\"ethg$o[0]\" src-module=\"sw2\" value=\"true\"/>\\n  </at>\\n  <at t=\"150\">\\n    <set-channel-param par=\"disabled\" src-gate=\"ethg$o[0]\" src-module=\"sw1\" value=\"false\"/>\\n    <set-channel-param par=\"disabled\" src-gate=\"ethg$o[0]\" src-module=\"sw2\" value=\"false\"/>\\n  </at>\\n</scenario>\\n')"
par STPRingNetwork typename "\"src.STPRingNetwork\""

