version 3
run RSTP-0-20260524-14:26:30-15928
attr configname RSTP
attr datetime 20260524-14:26:30
attr datetimef 20260524-142630
attr experiment RSTP
attr inifile omnetpp.ini
attr iterationvars ""
attr iterationvarsd ""
attr iterationvarsf ""
attr measurement ""
attr network src.STPRingNetwork
attr processid 15928
attr repetition 0
attr replication #0
attr resultdir results
attr runnumber 0
attr seedset 0
config image-path ../../inet-4.6.0/images
config extends General
config **.spanningTreeType "\"RSTP\""
config network src.STPRingNetwork
config sim-time-limit 120s
config **.hasSpanningTree true
config **.spanningTreeType "\"STP\""
config *.sw1.**.bridgePriority 4096
config *.sw2.**.bridgePriority 32768
config *.sw3.**.bridgePriority 32768
config *.sw4.**.bridgePriority 32768
config **.helloTime 2s
config **.maxAge 20s
config **.forwardDelay 15s
config **.stp.verbose true

par STPRingNetwork.sw1.ethg$o[0].channel typename "\"ned.DatarateChannel\""
par STPRingNetwork.sw1.ethg$o[0].channel disabled false
attr mutable ""
par STPRingNetwork.sw1.ethg$o[0].channel delay 1e-04s
attr mutable ""
attr unit s
par STPRingNetwork.sw1.ethg$o[0].channel datarate 1e+08bps
attr mutable ""
attr unit bps
par STPRingNetwork.sw1.ethg$o[0].channel ber 0
attr mutable ""
par STPRingNetwork.sw1.ethg$o[0].channel per 0
attr mutable ""
par STPRingNetwork.sw2.ethg$o[0].channel typename "\"ned.DatarateChannel\""
par STPRingNetwork.sw2.ethg$o[0].channel disabled false
attr mutable ""
par STPRingNetwork.sw2.ethg$o[0].channel delay 1e-04s
attr mutable ""
attr unit s
par STPRingNetwork.sw2.ethg$o[0].channel datarate 1e+08bps
attr mutable ""
attr unit bps
par STPRingNetwork.sw2.ethg$o[0].channel ber 0
attr mutable ""
par STPRingNetwork.sw2.ethg$o[0].channel per 0
attr mutable ""
par STPRingNetwork.sw2.ethg$o[1].channel typename "\"ned.DatarateChannel\""
par STPRingNetwork.sw2.ethg$o[1].channel disabled false
attr mutable ""
par STPRingNetwork.sw2.ethg$o[1].channel delay 1e-04s
attr mutable ""
attr unit s
par STPRingNetwork.sw2.ethg$o[1].channel datarate 1e+08bps
attr mutable ""
attr unit bps
par STPRingNetwork.sw2.ethg$o[1].channel ber 0
attr mutable ""
par STPRingNetwork.sw2.ethg$o[1].channel per 0
attr mutable ""
par STPRingNetwork.sw3.ethg$o[0].channel typename "\"ned.DatarateChannel\""
par STPRingNetwork.sw3.ethg$o[0].channel disabled false
attr mutable ""
par STPRingNetwork.sw3.ethg$o[0].channel delay 1e-04s
attr mutable ""
attr unit s
par STPRingNetwork.sw3.ethg$o[0].channel datarate 1e+08bps
attr mutable ""
attr unit bps
par STPRingNetwork.sw3.ethg$o[0].channel ber 0
attr mutable ""
par STPRingNetwork.sw3.ethg$o[0].channel per 0
attr mutable ""
par STPRingNetwork.sw3.ethg$o[1].channel typename "\"ned.DatarateChannel\""
par STPRingNetwork.sw3.ethg$o[1].channel disabled false
attr mutable ""
par STPRingNetwork.sw3.ethg$o[1].channel delay 1e-04s
attr mutable ""
attr unit s
par STPRingNetwork.sw3.ethg$o[1].channel datarate 1e+08bps
attr mutable ""
attr unit bps
par STPRingNetwork.sw3.ethg$o[1].channel ber 0
attr mutable ""
par STPRingNetwork.sw3.ethg$o[1].channel per 0
attr mutable ""
par STPRingNetwork.sw4.ethg$o[0].channel typename "\"ned.DatarateChannel\""
par STPRingNetwork.sw4.ethg$o[0].channel disabled false
attr mutable ""
par STPRingNetwork.sw4.ethg$o[0].channel delay 1e-04s
attr mutable ""
attr unit s
par STPRingNetwork.sw4.ethg$o[0].channel datarate 1e+08bps
attr mutable ""
attr unit bps
par STPRingNetwork.sw4.ethg$o[0].channel ber 0
attr mutable ""
par STPRingNetwork.sw4.ethg$o[0].channel per 0
attr mutable ""
par STPRingNetwork.sw4.ethg$o[1].channel typename "\"ned.DatarateChannel\""
par STPRingNetwork.sw4.ethg$o[1].channel disabled false
attr mutable ""
par STPRingNetwork.sw4.ethg$o[1].channel delay 1e-04s
attr mutable ""
attr unit s
par STPRingNetwork.sw4.ethg$o[1].channel datarate 1e+08bps
attr mutable ""
attr unit bps
par STPRingNetwork.sw4.ethg$o[1].channel ber 0
attr mutable ""
par STPRingNetwork.sw4.ethg$o[1].channel per 0
attr mutable ""
par STPRingNetwork.sw1.ethg$o[1].channel typename "\"ned.DatarateChannel\""
par STPRingNetwork.sw1.ethg$o[1].channel disabled false
attr mutable ""
par STPRingNetwork.sw1.ethg$o[1].channel delay 1e-04s
attr mutable ""
attr unit s
par STPRingNetwork.sw1.ethg$o[1].channel datarate 1e+08bps
attr mutable ""
attr unit bps
par STPRingNetwork.sw1.ethg$o[1].channel ber 0
attr mutable ""
par STPRingNetwork.sw1.ethg$o[1].channel per 0
attr mutable ""
par STPRingNetwork.host1.ethg$o[0].channel typename "\"ned.DatarateChannel\""
par STPRingNetwork.host1.ethg$o[0].channel disabled false
attr mutable ""
par STPRingNetwork.host1.ethg$o[0].channel delay 1e-04s
attr mutable ""
attr unit s
par STPRingNetwork.host1.ethg$o[0].channel datarate 1e+08bps
attr mutable ""
attr unit bps
par STPRingNetwork.host1.ethg$o[0].channel ber 0
attr mutable ""
par STPRingNetwork.host1.ethg$o[0].channel per 0
attr mutable ""
par STPRingNetwork.sw1.ethg$o[2].channel typename "\"ned.DatarateChannel\""
par STPRingNetwork.sw1.ethg$o[2].channel disabled false
attr mutable ""
par STPRingNetwork.sw1.ethg$o[2].channel delay 1e-04s
attr mutable ""
attr unit s
par STPRingNetwork.sw1.ethg$o[2].channel datarate 1e+08bps
attr mutable ""
attr unit bps
par STPRingNetwork.sw1.ethg$o[2].channel ber 0
attr mutable ""
par STPRingNetwork.sw1.ethg$o[2].channel per 0
attr mutable ""
par STPRingNetwork.host2.ethg$o[0].channel typename "\"ned.DatarateChannel\""
par STPRingNetwork.host2.ethg$o[0].channel disabled false
attr mutable ""
par STPRingNetwork.host2.ethg$o[0].channel delay 1e-04s
attr mutable ""
attr unit s
par STPRingNetwork.host2.ethg$o[0].channel datarate 1e+08bps
attr mutable ""
attr unit bps
par STPRingNetwork.host2.ethg$o[0].channel ber 0
attr mutable ""
par STPRingNetwork.host2.ethg$o[0].channel per 0
attr mutable ""
par STPRingNetwork.sw3.ethg$o[2].channel typename "\"ned.DatarateChannel\""
par STPRingNetwork.sw3.ethg$o[2].channel disabled false
attr mutable ""
par STPRingNetwork.sw3.ethg$o[2].channel delay 1e-04s
attr mutable ""
attr unit s
par STPRingNetwork.sw3.ethg$o[2].channel datarate 1e+08bps
attr mutable ""
attr unit bps
par STPRingNetwork.sw3.ethg$o[2].channel ber 0
attr mutable ""
par STPRingNetwork.sw3.ethg$o[2].channel per 0
attr mutable ""
par STPRingNetwork.sw1.eth[0].phys$o.channel typename "\"ned.IdealChannel\""
par STPRingNetwork.sw1.ethg$i[0].channel typename "\"ned.IdealChannel\""
par STPRingNetwork.sw1.eth[1].phys$o.channel typename "\"ned.IdealChannel\""
par STPRingNetwork.sw1.ethg$i[1].channel typename "\"ned.IdealChannel\""
par STPRingNetwork.sw1.eth[2].phys$o.channel typename "\"ned.IdealChannel\""
par STPRingNetwork.sw1.ethg$i[2].channel typename "\"ned.IdealChannel\""
par STPRingNetwork.sw1.macTable typename "\"inet.linklayer.ethernet.common.MacForwardingTable\""
par STPRingNetwork.sw1.macTable displayStringTextFormat "\"addr: %a\\nvlan: %v\""
attr mutable ""
par STPRingNetwork.sw1.macTable agingTime 120s
attr unit s
par STPRingNetwork.sw1.macTable forwardingTable []
attr mutable ""
par STPRingNetwork.sw1.macTable forwardingTableFile "\"\""
par STPRingNetwork.sw1.macTable interfaceTableModule "\"STPRingNetwork.sw1.interfaceTable\""
par STPRingNetwork.sw1.interfaceTable typename "\"inet.networklayer.common.InterfaceTable\""
par STPRingNetwork.sw1.interfaceTable displayStringTextFormat "\"\""
attr mutable ""
par STPRingNetwork.sw1.interfaceTable displayAddresses false
par STPRingNetwork.sw1.sc typename "\"inet.common.MessageDispatcher\""
par STPRingNetwork.sw1.sc displayStringTextFormat "\"processed %p pk (%l)\""
attr mutable ""
par STPRingNetwork.sw1.sc interfaceTableModule "\"STPRingNetwork.sw1.interfaceTable\""
par STPRingNetwork.sw1.sc forwardServiceRegistration true
par STPRingNetwork.sw1.sc forwardProtocolRegistration true
par STPRingNetwork.sw1.sc interfaceMapping {}
par STPRingNetwork.sw1.sc serviceMapping {}
par STPRingNetwork.sw1.sc protocolMapping {}
par STPRingNetwork.sw1.cb typename "\"inet.common.MessageDispatcher\""
par STPRingNetwork.sw1.cb displayStringTextFormat "\"processed %p pk (%l)\""
attr mutable ""
par STPRingNetwork.sw1.cb interfaceTableModule "\"STPRingNetwork.sw1.interfaceTable\""
par STPRingNetwork.sw1.cb forwardServiceRegistration true
par STPRingNetwork.sw1.cb forwardProtocolRegistration true
par STPRingNetwork.sw1.cb interfaceMapping {}
par STPRingNetwork.sw1.cb serviceMapping {}
par STPRingNetwork.sw1.cb protocolMapping {}
par STPRingNetwork.sw1.bridging typename "\"inet.linklayer.ieee8021d.relay.Ieee8021dRelay\""
par STPRingNetwork.sw1.bridging displayStringTextFormat "\"proc: %p\\ndisc: %d\""
attr mutable ""
par STPRingNetwork.sw1.bridging macTableModule "\"STPRingNetwork.sw1.macTable\""
par STPRingNetwork.sw1.bridging interfaceTableModule "\"STPRingNetwork.sw1.interfaceTable\""
scalar STPRingNetwork.sw1.bridging "processed frames" 0
scalar STPRingNetwork.sw1.bridging "discarded frames" 0
scalar STPRingNetwork.sw1.bridging "number of received BPDUs from STP module" 0
scalar STPRingNetwork.sw1.bridging "number of received frames from network (including BPDUs)" 0
scalar STPRingNetwork.sw1.bridging "number of dropped frames (including BPDUs)" 0
scalar STPRingNetwork.sw1.bridging "number of delivered BPDUs to the STP module" 0
scalar STPRingNetwork.sw1.bridging "number of dispatched BPDU frames to the network" 0
scalar STPRingNetwork.sw1.bridging "number of dispatched non-BDPU frames to the network" 0
scalar STPRingNetwork.sw1.bridging packetDropped:count 0
attr interpolationmode none
attr recordingmode count
attr title "packets dropped, count"
scalar STPRingNetwork.sw1.bridging packetDropped:sum(packetBytes) 0
attr interpolationmode none
attr recordingmode sum(packetBytes)
attr title "packets dropped, sum(packetBytes)"
par STPRingNetwork.sw1.bl typename "\"inet.common.MessageDispatcher\""
par STPRingNetwork.sw1.bl displayStringTextFormat "\"processed %p pk (%l)\""
attr mutable ""
par STPRingNetwork.sw1.bl interfaceTableModule "\"STPRingNetwork.sw1.interfaceTable\""
par STPRingNetwork.sw1.bl forwardServiceRegistration true
par STPRingNetwork.sw1.bl forwardProtocolRegistration true
par STPRingNetwork.sw1.bl interfaceMapping {}
par STPRingNetwork.sw1.bl serviceMapping {}
par STPRingNetwork.sw1.bl protocolMapping {}
par STPRingNetwork.sw1.ethernet typename "\"inet.linklayer.ethernet.basic.EthernetEncapsulation\""
par STPRingNetwork.sw1.ethernet displayStringTextFormat "\"\""
attr mutable ""
par STPRingNetwork.sw1.ethernet registerProtocol true
par STPRingNetwork.sw1.ethernet interfaceTableModule "\"STPRingNetwork.sw1.interfaceTable\""
par STPRingNetwork.sw1.ethernet fcsMode "\"declared\""
attr enum declared,computed
par STPRingNetwork.sw1.ethernet stopOperationExtraTime -1s
attr unit s
par STPRingNetwork.sw1.ethernet stopOperationTimeout 2s
attr unit s
scalar STPRingNetwork.sw1.ethernet decapPk:count 0
attr interpolationmode none
attr recordingmode count
attr source decapPk
attr title "packets decapsulated, count"
scalar STPRingNetwork.sw1.ethernet decapPk:sum(packetBytes) 0
attr interpolationmode none
attr recordingmode sum(packetBytes)
attr source decapPk
attr title "packets decapsulated, sum(packetBytes)"
scalar STPRingNetwork.sw1.ethernet encapPk:count 0
attr interpolationmode none
attr recordingmode count
attr source encapPk
attr title "packets encapsulated, count"
scalar STPRingNetwork.sw1.ethernet encapPk:sum(packetBytes) 0
attr interpolationmode none
attr recordingmode sum(packetBytes)
attr source encapPk
attr title "packets encapsulated, sum(packetBytes)"
scalar STPRingNetwork.sw1.ethernet pauseSent:count 0
attr recordingmode count
attr title "pause sent, count"
scalar STPRingNetwork.sw1.ethernet pauseSent:sum 0
attr recordingmode sum
attr title "pause sent, sum"
par STPRingNetwork.sw1.li typename "\"inet.common.MessageDispatcher\""
par STPRingNetwork.sw1.li displayStringTextFormat "\"processed %p pk (%l)\""
attr mutable ""
par STPRingNetwork.sw1.li interfaceTableModule "\"STPRingNetwork.sw1.interfaceTable\""
par STPRingNetwork.sw1.li forwardServiceRegistration true
par STPRingNetwork.sw1.li forwardProtocolRegistration true
par STPRingNetwork.sw1.li interfaceMapping {}
par STPRingNetwork.sw1.li serviceMapping {}
par STPRingNetwork.sw1.li protocolMapping {}
par STPRingNetwork.sw1.eth[0].mac.phys$o.channel typename "\"ned.IdealChannel\""
par STPRingNetwork.sw1.eth[0].phys$i.channel typename "\"ned.IdealChannel\""
par STPRingNetwork.sw1.eth[0].upperLayerIn.channel typename "\"ned.IdealChannel\""
par STPRingNetwork.sw1.eth[0].mac.upperLayerOut.channel typename "\"ned.IdealChannel\""
par STPRingNetwork.sw1.eth[0].queue typename "\"inet.linklayer.ethernet.common.EthernetQueue\""
par STPRingNetwork.sw1.eth[0].queue displayStringTextFormat "\"contains %p pk (%l) pushed %u\\npulled %o removed %r dropped %d\""
attr mutable ""
par STPRingNetwork.sw1.eth[0].queue packetCapacity 1000
par STPRingNetwork.sw1.eth[0].queue dataCapacity -1b
attr unit b
par STPRingNetwork.sw1.eth[0].queue dropperClass "\"inet::queueing::PacketAtCollectionEndDropper\""
par STPRingNetwork.sw1.eth[0].queue comparatorClass "\"inet::EthernetFrameTypeComparator\""
par STPRingNetwork.sw1.eth[0].queue bufferModule "\"\""
scalar STPRingNetwork.sw1.eth[0].queue queueLength:last 0
attr autoWarmupFilter false
attr interpolationmode sample-hold
attr recordingmode last
attr source "warmup(atomic(constant0(packetPushEnded) + count(packetPushStarted) - count(packetPulled) - count(packetRemoved) - count(packetDropped)))"
attr title "queue length, last"
attr unit pk
scalar STPRingNetwork.sw1.eth[0].queue queueLength:max 0
attr autoWarmupFilter false
attr interpolationmode sample-hold
attr recordingmode max
attr source "warmup(atomic(constant0(packetPushEnded) + count(packetPushStarted) - count(packetPulled) - count(packetRemoved) - count(packetDropped)))"
attr title "queue length, max"
attr unit pk
scalar STPRingNetwork.sw1.eth[0].queue queueLength:timeavg 0
attr autoWarmupFilter false
attr interpolationmode sample-hold
attr recordingmode timeavg
attr source "warmup(atomic(constant0(packetPushEnded) + count(packetPushStarted) - count(packetPulled) - count(packetRemoved) - count(packetDropped)))"
attr title "queue length, timeavg"
attr unit pk
scalar STPRingNetwork.sw1.eth[0].queue queueBitLength:last 0
attr autoWarmupFilter false
attr interpolationmode sample-hold
attr recordingmode last
attr source "warmup(atomic(constant0(packetPushEnded) + sum(packetLength(packetPushStarted)) - sum(packetLength(packetPulled)) - sum(packetLength(packetRemoved)) - sum(packetLength(packetDropped))))"
attr title "queue bit length, last"
attr unit b
scalar STPRingNetwork.sw1.eth[0].queue queueBitLength:max 0
attr autoWarmupFilter false
attr interpolationmode sample-hold
attr recordingmode max
attr source "warmup(atomic(constant0(packetPushEnded) + sum(packetLength(packetPushStarted)) - sum(packetLength(packetPulled)) - sum(packetLength(packetRemoved)) - sum(packetLength(packetDropped))))"
attr title "queue bit length, max"
attr unit b
scalar STPRingNetwork.sw1.eth[0].queue queueBitLength:timeavg 0
attr autoWarmupFilter false
attr interpolationmode sample-hold
attr recordingmode timeavg
attr source "warmup(atomic(constant0(packetPushEnded) + sum(packetLength(packetPushStarted)) - sum(packetLength(packetPulled)) - sum(packetLength(packetRemoved)) - sum(packetLength(packetDropped))))"
attr title "queue bit length, timeavg"
attr unit b
statistic STPRingNetwork.sw1.eth[0].queue queueingTime:histogram
field count 0
field mean nan
field stddev nan
field min nan
field max nan
field sum 0
field sqrsum 0
attr interpolationmode none
attr recordingmode histogram
attr source queueingTime(packetPulled)
attr title "queueing times"
attr unit s
bin	-inf	0
bin	0	0
bin	1	0
scalar STPRingNetwork.sw1.eth[0].queue outgoingPackets:count 0
attr recordingmode count
attr source packetPulled
attr title "outgoing packets, count"
attr unit pk
scalar STPRingNetwork.sw1.eth[0].queue outgoingPacketLengths:sum 0
attr interpolationmode none
attr recordingmode sum
attr source packetLength(packetPulled)
attr title "outgoing packet lengths, sum"
attr unit b
statistic STPRingNetwork.sw1.eth[0].queue outgoingPacketLengths:histogram
field count 0
field mean nan
field stddev nan
field min nan
field max nan
field sum 0
field sqrsum 0
attr interpolationmode none
attr recordingmode histogram
attr source packetLength(packetPulled)
attr title "outgoing packet lengths"
attr unit b
bin	-inf	0
bin	0	0
bin	1	0
statistic STPRingNetwork.sw1.eth[0].queue flowQueueingTime:histogram
field count 0
field mean nan
field stddev nan
field min nan
field max nan
field sum 0
field sqrsum 0
attr interpolationmode none
attr recordingmode histogram
attr source queueingTime(demuxFlow(packetPulled))
attr title "flow queueing times"
attr unit s
bin	-inf	0
bin	0	0
bin	1	0
scalar STPRingNetwork.sw1.eth[0].queue incomingPackets:count 0
attr recordingmode count
attr source packetPushStarted
attr title "incoming packets, count"
attr unit pk
scalar STPRingNetwork.sw1.eth[0].queue incomingPacketLengths:sum 0
attr interpolationmode none
attr recordingmode sum
attr source packetLength(packetPushStarted)
attr title "incoming packet lengths, sum"
attr unit b
statistic STPRingNetwork.sw1.eth[0].queue incomingPacketLengths:histogram
field count 0
field mean nan
field stddev nan
field min nan
field max nan
field sum 0
field sqrsum 0
attr interpolationmode none
attr recordingmode histogram
attr source packetLength(packetPushStarted)
attr title "incoming packet lengths"
attr unit b
bin	-inf	0
bin	0	0
bin	1	0
scalar STPRingNetwork.sw1.eth[0].queue droppedPacketsQueueOverflow:count 0
attr interpolationmode none
attr recordingmode count
attr source packetDropReasonIsQueueOverflow(packetDropped)
attr title "dropped packets: queue overflow, count"
attr unit pk
scalar STPRingNetwork.sw1.eth[0].queue droppedPacketLengthsQueueOverflow:sum 0
attr interpolationmode none
attr recordingmode sum
attr source packetLength(packetDropReasonIsQueueOverflow(packetDropped))
attr title "dropped packet lengths: queue overflow, sum"
attr unit b
par STPRingNetwork.sw1.eth[0].mac typename "\"inet.linklayer.ethernet.basic.EthernetMacPhy\""
par STPRingNetwork.sw1.eth[0].mac displayStringTextFormat "\"rate: %b\\nsent: %s, rcvd: %r\\nqueue: %q, drop: %d\""
attr mutable ""
par STPRingNetwork.sw1.eth[0].mac interfaceTableModule "\"STPRingNetwork.sw1.interfaceTable\""
par STPRingNetwork.sw1.eth[0].mac sendRawBytes false
par STPRingNetwork.sw1.eth[0].mac promiscuous true
par STPRingNetwork.sw1.eth[0].mac duplexMode true
par STPRingNetwork.sw1.eth[0].mac allowNonstandardBitrate false
par STPRingNetwork.sw1.eth[0].mac receptionMode "\"auto\""
attr enum onStart,auto,onEnd,forceOnEnd
par STPRingNetwork.sw1.eth[0].mac mtu 1500B
attr unit B
par STPRingNetwork.sw1.eth[0].mac fcsMode "\"declared\""
attr enum declared,computed
par STPRingNetwork.sw1.eth[0].mac stopOperationExtraTime -1s
attr unit s
par STPRingNetwork.sw1.eth[0].mac stopOperationTimeout 2s
attr unit s
scalar STPRingNetwork.sw1.eth[0].mac "simulated time" 120
scalar STPRingNetwork.sw1.eth[0].mac full-duplex 1
scalar STPRingNetwork.sw1.eth[0].mac "frames/sec sent" 0
scalar STPRingNetwork.sw1.eth[0].mac "frames/sec rcvd" 0
scalar STPRingNetwork.sw1.eth[0].mac "bits/sec sent" 0
scalar STPRingNetwork.sw1.eth[0].mac "bits/sec rcvd" 0
scalar STPRingNetwork.sw1.eth[0].mac "rx channel idle (%)" 100
scalar STPRingNetwork.sw1.eth[0].mac "rx channel utilization (%)" 0
statistic STPRingNetwork.sw1.eth[0].mac throughput:histogram
field count 0
field mean nan
field stddev nan
field min nan
field max nan
field sum 0
field sqrsum 0
attr interpolationmode linear
attr recordingmode histogram
attr source throughput(transmissionEnded)
attr title throughput
attr unit bps
bin	-inf	0
bin	0	0
bin	1	0
statistic STPRingNetwork.sw1.eth[0].mac utilization:histogram
field count 0
field mean nan
field stddev nan
field min nan
field max nan
field sum 0
field sqrsum 0
attr interpolationmode linear
attr recordingmode histogram
attr source "100 * utilization(count(transmissionStarted) - count(transmissionEnded))"
attr title utilization
attr unit %
bin	-inf	0
bin	0	0
bin	1	0
scalar STPRingNetwork.sw1.eth[0].mac txPk:count 0
attr interpolationmode none
attr recordingmode count
attr source packetSentToLower
attr title "packets transmitted, count"
scalar STPRingNetwork.sw1.eth[0].mac txPk:sum(packetBytes) 0
attr interpolationmode none
attr recordingmode sum(packetBytes)
attr source packetSentToLower
attr title "packets transmitted, sum(packetBytes)"
scalar STPRingNetwork.sw1.eth[0].mac packetReceivedFromUpper:count 0
attr interpolationmode none
attr recordingmode count
attr source packetReceivedFromUpper
attr title "packet bytes from higher layer, count"
scalar STPRingNetwork.sw1.eth[0].mac packetReceivedFromUpper:sum(packetBytes) 0
attr interpolationmode none
attr recordingmode sum(packetBytes)
attr source packetReceivedFromUpper
attr title "packet bytes from higher layer, sum(packetBytes)"
scalar STPRingNetwork.sw1.eth[0].mac passedUpPk:count 0
attr interpolationmode none
attr recordingmode count
attr source packetSentToUpper
attr title "packets passed to higher layer, count"
scalar STPRingNetwork.sw1.eth[0].mac passedUpPk:sum(packetBytes) 0
attr interpolationmode none
attr recordingmode sum(packetBytes)
attr source packetSentToUpper
attr title "packets passed to higher layer, sum(packetBytes)"
scalar STPRingNetwork.sw1.eth[0].mac packetDropIncorrectlyReceived:count 0
attr interpolationmode none
attr recordingmode count
attr source packetDropReasonIsIncorrectlyReceived(packetDropped)
attr title "packet drop: incorrectly received, count"
scalar STPRingNetwork.sw1.eth[0].mac packetDropIncorrectlyReceived:sum(packetBytes) 0
attr interpolationmode none
attr recordingmode sum(packetBytes)
attr source packetDropReasonIsIncorrectlyReceived(packetDropped)
attr title "packet drop: incorrectly received, sum(packetBytes)"
scalar STPRingNetwork.sw1.eth[0].mac packetDropInterfaceDown:count 0
attr interpolationmode none
attr recordingmode count
attr source packetDropReasonIsInterfaceDown(packetDropped)
attr title "packet drop: interface down, count"
scalar STPRingNetwork.sw1.eth[0].mac packetDropInterfaceDown:sum(packetBytes) 0
attr interpolationmode none
attr recordingmode sum(packetBytes)
attr source packetDropReasonIsInterfaceDown(packetDropped)
attr title "packet drop: interface down, sum(packetBytes)"
scalar STPRingNetwork.sw1.eth[0].mac packetDropNotAddressedToUs:count 0
attr interpolationmode none
attr recordingmode count
attr source packetDropReasonIsNotAddressedToUs(packetDropped)
attr title "packet drop: not addressed to us, count"
scalar STPRingNetwork.sw1.eth[0].mac packetDropNotAddressedToUs:sum(packetBytes) 0
attr interpolationmode none
attr recordingmode sum(packetBytes)
attr source packetDropReasonIsNotAddressedToUs(packetDropped)
attr title "packet drop: not addressed to us, sum(packetBytes)"
scalar STPRingNetwork.sw1.eth[0].mac rxPausePkUnits:count 0
attr interpolationmode none
attr recordingmode count
attr title "pause units received, count"
scalar STPRingNetwork.sw1.eth[0].mac rxPausePkUnits:sum 0
attr interpolationmode none
attr recordingmode sum
attr title "pause units received, sum"
scalar STPRingNetwork.sw1.eth[0].mac txPausePkUnits:count 0
attr interpolationmode none
attr recordingmode count
attr title "pause units sent, count"
scalar STPRingNetwork.sw1.eth[0].mac txPausePkUnits:sum 0
attr interpolationmode none
attr recordingmode sum
attr title "pause units sent, sum"
scalar STPRingNetwork.sw1.eth[0].mac rxPkOk:count 0
attr interpolationmode none
attr recordingmode count
attr source rxPkOk
attr title "packets received OK, count"
scalar STPRingNetwork.sw1.eth[0].mac rxPkOk:sum(packetBytes) 0
attr interpolationmode none
attr recordingmode sum(packetBytes)
attr source rxPkOk
attr title "packets received OK, sum(packetBytes)"
par STPRingNetwork.sw1.eth[0] typename "\"inet.linklayer.ethernet.basic.EthernetInterface\""
par STPRingNetwork.sw1.eth[0] displayStringTextFormat "\"%a (%i)\\n%m\""
attr mutable ""
par STPRingNetwork.sw1.eth[0] recordPcap false
par STPRingNetwork.sw1.eth[0] numPcapRecorders 0
par STPRingNetwork.sw1.eth[0] interfaceTableModule "\"STPRingNetwork.sw1.interfaceTable\""
par STPRingNetwork.sw1.eth[0] protocol "\"ethernetmac\""
par STPRingNetwork.sw1.eth[0] address "\"0A-AA-00-00-00-01\""
attr mutable ""
par STPRingNetwork.sw1.eth[0] duplexMode true
par STPRingNetwork.sw1.eth[0] csmacdSupport false
par STPRingNetwork.sw1.eth[0] bitrate 0bps
attr unit bps
par STPRingNetwork.sw1.eth[0] fcsMode "\"declared\""
attr enum declared,computed
scalar STPRingNetwork.sw1.eth[0] packetDropInterfaceDown:count 0
attr interpolationmode none
attr recordingmode count
attr source packetDropReasonIsInterfaceDown(packetDropped)
attr title "packet drops: interface down, count"
scalar STPRingNetwork.sw1.eth[0] packetDropInterfaceDown:sum(packetBytes) 0
attr interpolationmode none
attr recordingmode sum(packetBytes)
attr source packetDropReasonIsInterfaceDown(packetDropped)
attr title "packet drops: interface down, sum(packetBytes)"
scalar STPRingNetwork.sw1.eth[0] packetDropNoCarrier:count 0
attr interpolationmode none
attr recordingmode count
attr source packetDropReasonIsNoCarrier(packetDropped)
attr title "packet drops: no carrier, count"
scalar STPRingNetwork.sw1.eth[0] packetDropNoCarrier:sum(packetBytes) 0
attr interpolationmode none
attr recordingmode sum(packetBytes)
attr source packetDropReasonIsNoCarrier(packetDropped)
attr title "packet drops: no carrier, sum(packetBytes)"
par STPRingNetwork.sw1.eth[1].mac.phys$o.channel typename "\"ned.IdealChannel\""
par STPRingNetwork.sw1.eth[1].phys$i.channel typename "\"ned.IdealChannel\""
par STPRingNetwork.sw1.eth[1].upperLayerIn.channel typename "\"ned.IdealChannel\""
par STPRingNetwork.sw1.eth[1].mac.upperLayerOut.channel typename "\"ned.IdealChannel\""
par STPRingNetwork.sw1.eth[1].queue typename "\"inet.linklayer.ethernet.common.EthernetQueue\""
par STPRingNetwork.sw1.eth[1].queue displayStringTextFormat "\"contains %p pk (%l) pushed %u\\npulled %o removed %r dropped %d\""
attr mutable ""
par STPRingNetwork.sw1.eth[1].queue packetCapacity 1000
par STPRingNetwork.sw1.eth[1].queue dataCapacity -1b
attr unit b
par STPRingNetwork.sw1.eth[1].queue dropperClass "\"inet::queueing::PacketAtCollectionEndDropper\""
par STPRingNetwork.sw1.eth[1].queue comparatorClass "\"inet::EthernetFrameTypeComparator\""
par STPRingNetwork.sw1.eth[1].queue bufferModule "\"\""
scalar STPRingNetwork.sw1.eth[1].queue queueLength:last 0
attr autoWarmupFilter false
attr interpolationmode sample-hold
attr recordingmode last
attr source "warmup(atomic(constant0(packetPushEnded) + count(packetPushStarted) - count(packetPulled) - count(packetRemoved) - count(packetDropped)))"
attr title "queue length, last"
attr unit pk
scalar STPRingNetwork.sw1.eth[1].queue queueLength:max 0
attr autoWarmupFilter false
attr interpolationmode sample-hold
attr recordingmode max
attr source "warmup(atomic(constant0(packetPushEnded) + count(packetPushStarted) - count(packetPulled) - count(packetRemoved) - count(packetDropped)))"
attr title "queue length, max"
attr unit pk
scalar STPRingNetwork.sw1.eth[1].queue queueLength:timeavg 0
attr autoWarmupFilter false
attr interpolationmode sample-hold
attr recordingmode timeavg
attr source "warmup(atomic(constant0(packetPushEnded) + count(packetPushStarted) - count(packetPulled) - count(packetRemoved) - count(packetDropped)))"
attr title "queue length, timeavg"
attr unit pk
scalar STPRingNetwork.sw1.eth[1].queue queueBitLength:last 0
attr autoWarmupFilter false
attr interpolationmode sample-hold
attr recordingmode last
attr source "warmup(atomic(constant0(packetPushEnded) + sum(packetLength(packetPushStarted)) - sum(packetLength(packetPulled)) - sum(packetLength(packetRemoved)) - sum(packetLength(packetDropped))))"
attr title "queue bit length, last"
attr unit b
scalar STPRingNetwork.sw1.eth[1].queue queueBitLength:max 0
attr autoWarmupFilter false
attr interpolationmode sample-hold
attr recordingmode max
attr source "warmup(atomic(constant0(packetPushEnded) + sum(packetLength(packetPushStarted)) - sum(packetLength(packetPulled)) - sum(packetLength(packetRemoved)) - sum(packetLength(packetDropped))))"
attr title "queue bit length, max"
attr unit b
scalar STPRingNetwork.sw1.eth[1].queue queueBitLength:timeavg 0
attr autoWarmupFilter false
attr interpolationmode sample-hold
attr recordingmode timeavg
attr source "warmup(atomic(constant0(packetPushEnded) + sum(packetLength(packetPushStarted)) - sum(packetLength(packetPulled)) - sum(packetLength(packetRemoved)) - sum(packetLength(packetDropped))))"
attr title "queue bit length, timeavg"
attr unit b
statistic STPRingNetwork.sw1.eth[1].queue queueingTime:histogram
field count 0
field mean nan
field stddev nan
field min nan
field max nan
field sum 0
field sqrsum 0
attr interpolationmode none
attr recordingmode histogram
attr source queueingTime(packetPulled)
attr title "queueing times"
attr unit s
bin	-inf	0
bin	0	0
bin	1	0
scalar STPRingNetwork.sw1.eth[1].queue outgoingPackets:count 0
attr recordingmode count
attr source packetPulled
attr title "outgoing packets, count"
attr unit pk
scalar STPRingNetwork.sw1.eth[1].queue outgoingPacketLengths:sum 0
attr interpolationmode none
attr recordingmode sum
attr source packetLength(packetPulled)
attr title "outgoing packet lengths, sum"
attr unit b
statistic STPRingNetwork.sw1.eth[1].queue outgoingPacketLengths:histogram
field count 0
field mean nan
field stddev nan
field min nan
field max nan
field sum 0
field sqrsum 0
attr interpolationmode none
attr recordingmode histogram
attr source packetLength(packetPulled)
attr title "outgoing packet lengths"
attr unit b
bin	-inf	0
bin	0	0
bin	1	0
statistic STPRingNetwork.sw1.eth[1].queue flowQueueingTime:histogram
field count 0
field mean nan
field stddev nan
field min nan
field max nan
field sum 0
field sqrsum 0
attr interpolationmode none
attr recordingmode histogram
attr source queueingTime(demuxFlow(packetPulled))
attr title "flow queueing times"
attr unit s
bin	-inf	0
bin	0	0
bin	1	0
scalar STPRingNetwork.sw1.eth[1].queue incomingPackets:count 0
attr recordingmode count
attr source packetPushStarted
attr title "incoming packets, count"
attr unit pk
scalar STPRingNetwork.sw1.eth[1].queue incomingPacketLengths:sum 0
attr interpolationmode none
attr recordingmode sum
attr source packetLength(packetPushStarted)
attr title "incoming packet lengths, sum"
attr unit b
statistic STPRingNetwork.sw1.eth[1].queue incomingPacketLengths:histogram
field count 0
field mean nan
field stddev nan
field min nan
field max nan
field sum 0
field sqrsum 0
attr interpolationmode none
attr recordingmode histogram
attr source packetLength(packetPushStarted)
attr title "incoming packet lengths"
attr unit b
bin	-inf	0
bin	0	0
bin	1	0
scalar STPRingNetwork.sw1.eth[1].queue droppedPacketsQueueOverflow:count 0
attr interpolationmode none
attr recordingmode count
attr source packetDropReasonIsQueueOverflow(packetDropped)
attr title "dropped packets: queue overflow, count"
attr unit pk
scalar STPRingNetwork.sw1.eth[1].queue droppedPacketLengthsQueueOverflow:sum 0
attr interpolationmode none
attr recordingmode sum
attr source packetLength(packetDropReasonIsQueueOverflow(packetDropped))
attr title "dropped packet lengths: queue overflow, sum"
attr unit b
par STPRingNetwork.sw1.eth[1].mac typename "\"inet.linklayer.ethernet.basic.EthernetMacPhy\""
par STPRingNetwork.sw1.eth[1].mac displayStringTextFormat "\"rate: %b\\nsent: %s, rcvd: %r\\nqueue: %q, drop: %d\""
attr mutable ""
par STPRingNetwork.sw1.eth[1].mac interfaceTableModule "\"STPRingNetwork.sw1.interfaceTable\""
par STPRingNetwork.sw1.eth[1].mac sendRawBytes false
par STPRingNetwork.sw1.eth[1].mac promiscuous true
par STPRingNetwork.sw1.eth[1].mac duplexMode true
par STPRingNetwork.sw1.eth[1].mac allowNonstandardBitrate false
par STPRingNetwork.sw1.eth[1].mac receptionMode "\"auto\""
attr enum onStart,auto,onEnd,forceOnEnd
par STPRingNetwork.sw1.eth[1].mac mtu 1500B
attr unit B
par STPRingNetwork.sw1.eth[1].mac fcsMode "\"declared\""
attr enum declared,computed
par STPRingNetwork.sw1.eth[1].mac stopOperationExtraTime -1s
attr unit s
par STPRingNetwork.sw1.eth[1].mac stopOperationTimeout 2s
attr unit s
scalar STPRingNetwork.sw1.eth[1].mac "simulated time" 120
scalar STPRingNetwork.sw1.eth[1].mac full-duplex 1
scalar STPRingNetwork.sw1.eth[1].mac "frames/sec sent" 0
scalar STPRingNetwork.sw1.eth[1].mac "frames/sec rcvd" 0
scalar STPRingNetwork.sw1.eth[1].mac "bits/sec sent" 0
scalar STPRingNetwork.sw1.eth[1].mac "bits/sec rcvd" 0
scalar STPRingNetwork.sw1.eth[1].mac "rx channel idle (%)" 100
scalar STPRingNetwork.sw1.eth[1].mac "rx channel utilization (%)" 0
statistic STPRingNetwork.sw1.eth[1].mac throughput:histogram
field count 0
field mean nan
field stddev nan
field min nan
field max nan
field sum 0
field sqrsum 0
attr interpolationmode linear
attr recordingmode histogram
attr source throughput(transmissionEnded)
attr title throughput
attr unit bps
bin	-inf	0
bin	0	0
bin	1	0
statistic STPRingNetwork.sw1.eth[1].mac utilization:histogram
field count 0
field mean nan
field stddev nan
field min nan
field max nan
field sum 0
field sqrsum 0
attr interpolationmode linear
attr recordingmode histogram
attr source "100 * utilization(count(transmissionStarted) - count(transmissionEnded))"
attr title utilization
attr unit %
bin	-inf	0
bin	0	0
bin	1	0
scalar STPRingNetwork.sw1.eth[1].mac txPk:count 0
attr interpolationmode none
attr recordingmode count
attr source packetSentToLower
attr title "packets transmitted, count"
scalar STPRingNetwork.sw1.eth[1].mac txPk:sum(packetBytes) 0
attr interpolationmode none
attr recordingmode sum(packetBytes)
attr source packetSentToLower
attr title "packets transmitted, sum(packetBytes)"
scalar STPRingNetwork.sw1.eth[1].mac packetReceivedFromUpper:count 0
attr interpolationmode none
attr recordingmode count
attr source packetReceivedFromUpper
attr title "packet bytes from higher layer, count"
scalar STPRingNetwork.sw1.eth[1].mac packetReceivedFromUpper:sum(packetBytes) 0
attr interpolationmode none
attr recordingmode sum(packetBytes)
attr source packetReceivedFromUpper
attr title "packet bytes from higher layer, sum(packetBytes)"
scalar STPRingNetwork.sw1.eth[1].mac passedUpPk:count 0
attr interpolationmode none
attr recordingmode count
attr source packetSentToUpper
attr title "packets passed to higher layer, count"
scalar STPRingNetwork.sw1.eth[1].mac passedUpPk:sum(packetBytes) 0
attr interpolationmode none
attr recordingmode sum(packetBytes)
attr source packetSentToUpper
attr title "packets passed to higher layer, sum(packetBytes)"
scalar STPRingNetwork.sw1.eth[1].mac packetDropIncorrectlyReceived:count 0
attr interpolationmode none
attr recordingmode count
attr source packetDropReasonIsIncorrectlyReceived(packetDropped)
attr title "packet drop: incorrectly received, count"
scalar STPRingNetwork.sw1.eth[1].mac packetDropIncorrectlyReceived:sum(packetBytes) 0
attr interpolationmode none
attr recordingmode sum(packetBytes)
attr source packetDropReasonIsIncorrectlyReceived(packetDropped)
attr title "packet drop: incorrectly received, sum(packetBytes)"
scalar STPRingNetwork.sw1.eth[1].mac packetDropInterfaceDown:count 0
attr interpolationmode none
attr recordingmode count
attr source packetDropReasonIsInterfaceDown(packetDropped)
attr title "packet drop: interface down, count"
scalar STPRingNetwork.sw1.eth[1].mac packetDropInterfaceDown:sum(packetBytes) 0
attr interpolationmode none
attr recordingmode sum(packetBytes)
attr source packetDropReasonIsInterfaceDown(packetDropped)
attr title "packet drop: interface down, sum(packetBytes)"
scalar STPRingNetwork.sw1.eth[1].mac packetDropNotAddressedToUs:count 0
attr interpolationmode none
attr recordingmode count
attr source packetDropReasonIsNotAddressedToUs(packetDropped)
attr title "packet drop: not addressed to us, count"
scalar STPRingNetwork.sw1.eth[1].mac packetDropNotAddressedToUs:sum(packetBytes) 0
attr interpolationmode none
attr recordingmode sum(packetBytes)
attr source packetDropReasonIsNotAddressedToUs(packetDropped)
attr title "packet drop: not addressed to us, sum(packetBytes)"
scalar STPRingNetwork.sw1.eth[1].mac rxPausePkUnits:count 0
attr interpolationmode none
attr recordingmode count
attr title "pause units received, count"
scalar STPRingNetwork.sw1.eth[1].mac rxPausePkUnits:sum 0
attr interpolationmode none
attr recordingmode sum
attr title "pause units received, sum"
scalar STPRingNetwork.sw1.eth[1].mac txPausePkUnits:count 0
attr interpolationmode none
attr recordingmode count
attr title "pause units sent, count"
scalar STPRingNetwork.sw1.eth[1].mac txPausePkUnits:sum 0
attr interpolationmode none
attr recordingmode sum
attr title "pause units sent, sum"
scalar STPRingNetwork.sw1.eth[1].mac rxPkOk:count 0
attr interpolationmode none
attr recordingmode count
attr source rxPkOk
attr title "packets received OK, count"
scalar STPRingNetwork.sw1.eth[1].mac rxPkOk:sum(packetBytes) 0
attr interpolationmode none
attr recordingmode sum(packetBytes)
attr source rxPkOk
attr title "packets received OK, sum(packetBytes)"
par STPRingNetwork.sw1.eth[1] typename "\"inet.linklayer.ethernet.basic.EthernetInterface\""
par STPRingNetwork.sw1.eth[1] displayStringTextFormat "\"%a (%i)\\n%m\""
attr mutable ""
par STPRingNetwork.sw1.eth[1] recordPcap false
par STPRingNetwork.sw1.eth[1] numPcapRecorders 0
par STPRingNetwork.sw1.eth[1] interfaceTableModule "\"STPRingNetwork.sw1.interfaceTable\""
par STPRingNetwork.sw1.eth[1] protocol "\"ethernetmac\""
par STPRingNetwork.sw1.eth[1] address "\"0A-AA-00-00-00-02\""
attr mutable ""
par STPRingNetwork.sw1.eth[1] duplexMode true
par STPRingNetwork.sw1.eth[1] csmacdSupport false
par STPRingNetwork.sw1.eth[1] bitrate 0bps
attr unit bps
par STPRingNetwork.sw1.eth[1] fcsMode "\"declared\""
attr enum declared,computed
scalar STPRingNetwork.sw1.eth[1] packetDropInterfaceDown:count 0
attr interpolationmode none
attr recordingmode count
attr source packetDropReasonIsInterfaceDown(packetDropped)
attr title "packet drops: interface down, count"
scalar STPRingNetwork.sw1.eth[1] packetDropInterfaceDown:sum(packetBytes) 0
attr interpolationmode none
attr recordingmode sum(packetBytes)
attr source packetDropReasonIsInterfaceDown(packetDropped)
attr title "packet drops: interface down, sum(packetBytes)"
scalar STPRingNetwork.sw1.eth[1] packetDropNoCarrier:count 0
attr interpolationmode none
attr recordingmode count
attr source packetDropReasonIsNoCarrier(packetDropped)
attr title "packet drops: no carrier, count"
scalar STPRingNetwork.sw1.eth[1] packetDropNoCarrier:sum(packetBytes) 0
attr interpolationmode none
attr recordingmode sum(packetBytes)
attr source packetDropReasonIsNoCarrier(packetDropped)
attr title "packet drops: no carrier, sum(packetBytes)"
par STPRingNetwork.sw1.eth[2].mac.phys$o.channel typename "\"ned.IdealChannel\""
par STPRingNetwork.sw1.eth[2].phys$i.channel typename "\"ned.IdealChannel\""
par STPRingNetwork.sw1.eth[2].upperLayerIn.channel typename "\"ned.IdealChannel\""
par STPRingNetwork.sw1.eth[2].mac.upperLayerOut.channel typename "\"ned.IdealChannel\""
par STPRingNetwork.sw1.eth[2].queue typename "\"inet.linklayer.ethernet.common.EthernetQueue\""
par STPRingNetwork.sw1.eth[2].queue displayStringTextFormat "\"contains %p pk (%l) pushed %u\\npulled %o removed %r dropped %d\""
attr mutable ""
par STPRingNetwork.sw1.eth[2].queue packetCapacity 1000
par STPRingNetwork.sw1.eth[2].queue dataCapacity -1b
attr unit b
par STPRingNetwork.sw1.eth[2].queue dropperClass "\"inet::queueing::PacketAtCollectionEndDropper\""
par STPRingNetwork.sw1.eth[2].queue comparatorClass "\"inet::EthernetFrameTypeComparator\""
par STPRingNetwork.sw1.eth[2].queue bufferModule "\"\""
scalar STPRingNetwork.sw1.eth[2].queue queueLength:last 0
attr autoWarmupFilter false
attr interpolationmode sample-hold
attr recordingmode last
attr source "warmup(atomic(constant0(packetPushEnded) + count(packetPushStarted) - count(packetPulled) - count(packetRemoved) - count(packetDropped)))"
attr title "queue length, last"
attr unit pk
scalar STPRingNetwork.sw1.eth[2].queue queueLength:max 0
attr autoWarmupFilter false
attr interpolationmode sample-hold
attr recordingmode max
attr source "warmup(atomic(constant0(packetPushEnded) + count(packetPushStarted) - count(packetPulled) - count(packetRemoved) - count(packetDropped)))"
attr title "queue length, max"
attr unit pk
scalar STPRingNetwork.sw1.eth[2].queue queueLength:timeavg 0
attr autoWarmupFilter false
attr interpolationmode sample-hold
attr recordingmode timeavg
attr source "warmup(atomic(constant0(packetPushEnded) + count(packetPushStarted) - count(packetPulled) - count(packetRemoved) - count(packetDropped)))"
attr title "queue length, timeavg"
attr unit pk
scalar STPRingNetwork.sw1.eth[2].queue queueBitLength:last 0
attr autoWarmupFilter false
attr interpolationmode sample-hold
attr recordingmode last
attr source "warmup(atomic(constant0(packetPushEnded) + sum(packetLength(packetPushStarted)) - sum(packetLength(packetPulled)) - sum(packetLength(packetRemoved)) - sum(packetLength(packetDropped))))"
attr title "queue bit length, last"
attr unit b
scalar STPRingNetwork.sw1.eth[2].queue queueBitLength:max 0
attr autoWarmupFilter false
attr interpolationmode sample-hold
attr recordingmode max
attr source "warmup(atomic(constant0(packetPushEnded) + sum(packetLength(packetPushStarted)) - sum(packetLength(packetPulled)) - sum(packetLength(packetRemoved)) - sum(packetLength(packetDropped))))"
attr title "queue bit length, max"
attr unit b
scalar STPRingNetwork.sw1.eth[2].queue queueBitLength:timeavg 0
attr autoWarmupFilter false
attr interpolationmode sample-hold
attr recordingmode timeavg
attr source "warmup(atomic(constant0(packetPushEnded) + sum(packetLength(packetPushStarted)) - sum(packetLength(packetPulled)) - sum(packetLength(packetRemoved)) - sum(packetLength(packetDropped))))"
attr title "queue bit length, timeavg"
attr unit b
statistic STPRingNetwork.sw1.eth[2].queue queueingTime:histogram
field count 0
field mean nan
field stddev nan
field min nan
field max nan
field sum 0
field sqrsum 0
attr interpolationmode none
attr recordingmode histogram
attr source queueingTime(packetPulled)
attr title "queueing times"
attr unit s
bin	-inf	0
bin	0	0
bin	1	0
scalar STPRingNetwork.sw1.eth[2].queue outgoingPackets:count 0
attr recordingmode count
attr source packetPulled
attr title "outgoing packets, count"
attr unit pk
scalar STPRingNetwork.sw1.eth[2].queue outgoingPacketLengths:sum 0
attr interpolationmode none
attr recordingmode sum
attr source packetLength(packetPulled)
attr title "outgoing packet lengths, sum"
attr unit b
statistic STPRingNetwork.sw1.eth[2].queue outgoingPacketLengths:histogram
field count 0
field mean nan
field stddev nan
field min nan
field max nan
field sum 0
field sqrsum 0
attr interpolationmode none
attr recordingmode histogram
attr source packetLength(packetPulled)
attr title "outgoing packet lengths"
attr unit b
bin	-inf	0
bin	0	0
bin	1	0
statistic STPRingNetwork.sw1.eth[2].queue flowQueueingTime:histogram
field count 0
field mean nan
field stddev nan
field min nan
field max nan
field sum 0
field sqrsum 0
attr interpolationmode none
attr recordingmode histogram
attr source queueingTime(demuxFlow(packetPulled))
attr title "flow queueing times"
attr unit s
bin	-inf	0
bin	0	0
bin	1	0
scalar STPRingNetwork.sw1.eth[2].queue incomingPackets:count 0
attr recordingmode count
attr source packetPushStarted
attr title "incoming packets, count"
attr unit pk
scalar STPRingNetwork.sw1.eth[2].queue incomingPacketLengths:sum 0
attr interpolationmode none
attr recordingmode sum
attr source packetLength(packetPushStarted)
attr title "incoming packet lengths, sum"
attr unit b
statistic STPRingNetwork.sw1.eth[2].queue incomingPacketLengths:histogram
field count 0
field mean nan
field stddev nan
field min nan
field max nan
field sum 0
field sqrsum 0
attr interpolationmode none
attr recordingmode histogram
attr source packetLength(packetPushStarted)
attr title "incoming packet lengths"
attr unit b
bin	-inf	0
bin	0	0
bin	1	0
scalar STPRingNetwork.sw1.eth[2].queue droppedPacketsQueueOverflow:count 0
attr interpolationmode none
attr recordingmode count
attr source packetDropReasonIsQueueOverflow(packetDropped)
attr title "dropped packets: queue overflow, count"
attr unit pk
scalar STPRingNetwork.sw1.eth[2].queue droppedPacketLengthsQueueOverflow:sum 0
attr interpolationmode none
attr recordingmode sum
attr source packetLength(packetDropReasonIsQueueOverflow(packetDropped))
attr title "dropped packet lengths: queue overflow, sum"
attr unit b
par STPRingNetwork.sw1.eth[2].mac typename "\"inet.linklayer.ethernet.basic.EthernetMacPhy\""
par STPRingNetwork.sw1.eth[2].mac displayStringTextFormat "\"rate: %b\\nsent: %s, rcvd: %r\\nqueue: %q, drop: %d\""
attr mutable ""
par STPRingNetwork.sw1.eth[2].mac interfaceTableModule "\"STPRingNetwork.sw1.interfaceTable\""
par STPRingNetwork.sw1.eth[2].mac sendRawBytes false
par STPRingNetwork.sw1.eth[2].mac promiscuous true
par STPRingNetwork.sw1.eth[2].mac duplexMode true
par STPRingNetwork.sw1.eth[2].mac allowNonstandardBitrate false
par STPRingNetwork.sw1.eth[2].mac receptionMode "\"auto\""
attr enum onStart,auto,onEnd,forceOnEnd
par STPRingNetwork.sw1.eth[2].mac mtu 1500B
attr unit B
par STPRingNetwork.sw1.eth[2].mac fcsMode "\"declared\""
attr enum declared,computed
par STPRingNetwork.sw1.eth[2].mac stopOperationExtraTime -1s
attr unit s
par STPRingNetwork.sw1.eth[2].mac stopOperationTimeout 2s
attr unit s
scalar STPRingNetwork.sw1.eth[2].mac "simulated time" 120
scalar STPRingNetwork.sw1.eth[2].mac full-duplex 1
scalar STPRingNetwork.sw1.eth[2].mac "frames/sec sent" 0
scalar STPRingNetwork.sw1.eth[2].mac "frames/sec rcvd" 0
scalar STPRingNetwork.sw1.eth[2].mac "bits/sec sent" 0
scalar STPRingNetwork.sw1.eth[2].mac "bits/sec rcvd" 0
scalar STPRingNetwork.sw1.eth[2].mac "rx channel idle (%)" 100
scalar STPRingNetwork.sw1.eth[2].mac "rx channel utilization (%)" 0
statistic STPRingNetwork.sw1.eth[2].mac throughput:histogram
field count 0
field mean nan
field stddev nan
field min nan
field max nan
field sum 0
field sqrsum 0
attr interpolationmode linear
attr recordingmode histogram
attr source throughput(transmissionEnded)
attr title throughput
attr unit bps
bin	-inf	0
bin	0	0
bin	1	0
statistic STPRingNetwork.sw1.eth[2].mac utilization:histogram
field count 0
field mean nan
field stddev nan
field min nan
field max nan
field sum 0
field sqrsum 0
attr interpolationmode linear
attr recordingmode histogram
attr source "100 * utilization(count(transmissionStarted) - count(transmissionEnded))"
attr title utilization
attr unit %
bin	-inf	0
bin	0	0
bin	1	0
scalar STPRingNetwork.sw1.eth[2].mac txPk:count 0
attr interpolationmode none
attr recordingmode count
attr source packetSentToLower
attr title "packets transmitted, count"
scalar STPRingNetwork.sw1.eth[2].mac txPk:sum(packetBytes) 0
attr interpolationmode none
attr recordingmode sum(packetBytes)
attr source packetSentToLower
attr title "packets transmitted, sum(packetBytes)"
scalar STPRingNetwork.sw1.eth[2].mac packetReceivedFromUpper:count 0
attr interpolationmode none
attr recordingmode count
attr source packetReceivedFromUpper
attr title "packet bytes from higher layer, count"
scalar STPRingNetwork.sw1.eth[2].mac packetReceivedFromUpper:sum(packetBytes) 0
attr interpolationmode none
attr recordingmode sum(packetBytes)
attr source packetReceivedFromUpper
attr title "packet bytes from higher layer, sum(packetBytes)"
scalar STPRingNetwork.sw1.eth[2].mac passedUpPk:count 0
attr interpolationmode none
attr recordingmode count
attr source packetSentToUpper
attr title "packets passed to higher layer, count"
scalar STPRingNetwork.sw1.eth[2].mac passedUpPk:sum(packetBytes) 0
attr interpolationmode none
attr recordingmode sum(packetBytes)
attr source packetSentToUpper
attr title "packets passed to higher layer, sum(packetBytes)"
scalar STPRingNetwork.sw1.eth[2].mac packetDropIncorrectlyReceived:count 0
attr interpolationmode none
attr recordingmode count
attr source packetDropReasonIsIncorrectlyReceived(packetDropped)
attr title "packet drop: incorrectly received, count"
scalar STPRingNetwork.sw1.eth[2].mac packetDropIncorrectlyReceived:sum(packetBytes) 0
attr interpolationmode none
attr recordingmode sum(packetBytes)
attr source packetDropReasonIsIncorrectlyReceived(packetDropped)
attr title "packet drop: incorrectly received, sum(packetBytes)"
scalar STPRingNetwork.sw1.eth[2].mac packetDropInterfaceDown:count 0
attr interpolationmode none
attr recordingmode count
attr source packetDropReasonIsInterfaceDown(packetDropped)
attr title "packet drop: interface down, count"
scalar STPRingNetwork.sw1.eth[2].mac packetDropInterfaceDown:sum(packetBytes) 0
attr interpolationmode none
attr recordingmode sum(packetBytes)
attr source packetDropReasonIsInterfaceDown(packetDropped)
attr title "packet drop: interface down, sum(packetBytes)"
scalar STPRingNetwork.sw1.eth[2].mac packetDropNotAddressedToUs:count 0
attr interpolationmode none
attr recordingmode count
attr source packetDropReasonIsNotAddressedToUs(packetDropped)
attr title "packet drop: not addressed to us, count"
scalar STPRingNetwork.sw1.eth[2].mac packetDropNotAddressedToUs:sum(packetBytes) 0
attr interpolationmode none
attr recordingmode sum(packetBytes)
attr source packetDropReasonIsNotAddressedToUs(packetDropped)
attr title "packet drop: not addressed to us, sum(packetBytes)"
scalar STPRingNetwork.sw1.eth[2].mac rxPausePkUnits:count 0
attr interpolationmode none
attr recordingmode count
attr title "pause units received, count"
scalar STPRingNetwork.sw1.eth[2].mac rxPausePkUnits:sum 0
attr interpolationmode none
attr recordingmode sum
attr title "pause units received, sum"
scalar STPRingNetwork.sw1.eth[2].mac txPausePkUnits:count 0
attr interpolationmode none
attr recordingmode count
attr title "pause units sent, count"
scalar STPRingNetwork.sw1.eth[2].mac txPausePkUnits:sum 0
attr interpolationmode none
attr recordingmode sum
attr title "pause units sent, sum"
scalar STPRingNetwork.sw1.eth[2].mac rxPkOk:count 0
attr interpolationmode none
attr recordingmode count
attr source rxPkOk
attr title "packets received OK, count"
scalar STPRingNetwork.sw1.eth[2].mac rxPkOk:sum(packetBytes) 0
attr interpolationmode none
attr recordingmode sum(packetBytes)
attr source rxPkOk
attr title "packets received OK, sum(packetBytes)"
par STPRingNetwork.sw1.eth[2] typename "\"inet.linklayer.ethernet.basic.EthernetInterface\""
par STPRingNetwork.sw1.eth[2] displayStringTextFormat "\"%a (%i)\\n%m\""
attr mutable ""
par STPRingNetwork.sw1.eth[2] recordPcap false
par STPRingNetwork.sw1.eth[2] numPcapRecorders 0
par STPRingNetwork.sw1.eth[2] interfaceTableModule "\"STPRingNetwork.sw1.interfaceTable\""
par STPRingNetwork.sw1.eth[2] protocol "\"ethernetmac\""
par STPRingNetwork.sw1.eth[2] address "\"0A-AA-00-00-00-03\""
attr mutable ""
par STPRingNetwork.sw1.eth[2] duplexMode true
par STPRingNetwork.sw1.eth[2] csmacdSupport false
par STPRingNetwork.sw1.eth[2] bitrate 0bps
attr unit bps
par STPRingNetwork.sw1.eth[2] fcsMode "\"declared\""
attr enum declared,computed
scalar STPRingNetwork.sw1.eth[2] packetDropInterfaceDown:count 0
attr interpolationmode none
attr recordingmode count
attr source packetDropReasonIsInterfaceDown(packetDropped)
attr title "packet drops: interface down, count"
scalar STPRingNetwork.sw1.eth[2] packetDropInterfaceDown:sum(packetBytes) 0
attr interpolationmode none
attr recordingmode sum(packetBytes)
attr source packetDropReasonIsInterfaceDown(packetDropped)
attr title "packet drops: interface down, sum(packetBytes)"
scalar STPRingNetwork.sw1.eth[2] packetDropNoCarrier:count 0
attr interpolationmode none
attr recordingmode count
attr source packetDropReasonIsNoCarrier(packetDropped)
attr title "packet drops: no carrier, count"
scalar STPRingNetwork.sw1.eth[2] packetDropNoCarrier:sum(packetBytes) 0
attr interpolationmode none
attr recordingmode sum(packetBytes)
attr source packetDropReasonIsNoCarrier(packetDropped)
attr title "packet drops: no carrier, sum(packetBytes)"
par STPRingNetwork.sw1 typename "\"inet.node.ethernet.EthernetSwitch\""
par STPRingNetwork.sw1 recordPcap false
par STPRingNetwork.sw1 numPcapRecorders 0
par STPRingNetwork.sw1 numApps 0
par STPRingNetwork.sw1 hasStatus false
par STPRingNetwork.sw1 hasStp false
par STPRingNetwork.sw1 hasMrp false
par STPRingNetwork.sw1 hasGptp false
par STPRingNetwork.sw1 hasCutthroughSwitching false
par STPRingNetwork.sw1 fcsMode "\"declared\""
attr enum declared,computed
par STPRingNetwork.sw1 spanningTreeProtocol "\"Stp\""
par STPRingNetwork.sw1 numEthInterfaces 0
par STPRingNetwork.sw2.eth[0].phys$o.channel typename "\"ned.IdealChannel\""
par STPRingNetwork.sw2.ethg$i[0].channel typename "\"ned.IdealChannel\""
par STPRingNetwork.sw2.eth[1].phys$o.channel typename "\"ned.IdealChannel\""
par STPRingNetwork.sw2.ethg$i[1].channel typename "\"ned.IdealChannel\""
par STPRingNetwork.sw2.macTable typename "\"inet.linklayer.ethernet.common.MacForwardingTable\""
par STPRingNetwork.sw2.macTable displayStringTextFormat "\"addr: %a\\nvlan: %v\""
attr mutable ""
par STPRingNetwork.sw2.macTable agingTime 120s
attr unit s
par STPRingNetwork.sw2.macTable forwardingTable []
attr mutable ""
par STPRingNetwork.sw2.macTable forwardingTableFile "\"\""
par STPRingNetwork.sw2.macTable interfaceTableModule "\"STPRingNetwork.sw2.interfaceTable\""
par STPRingNetwork.sw2.interfaceTable typename "\"inet.networklayer.common.InterfaceTable\""
par STPRingNetwork.sw2.interfaceTable displayStringTextFormat "\"\""
attr mutable ""
par STPRingNetwork.sw2.interfaceTable displayAddresses false
par STPRingNetwork.sw2.sc typename "\"inet.common.MessageDispatcher\""
par STPRingNetwork.sw2.sc displayStringTextFormat "\"processed %p pk (%l)\""
attr mutable ""
par STPRingNetwork.sw2.sc interfaceTableModule "\"STPRingNetwork.sw2.interfaceTable\""
par STPRingNetwork.sw2.sc forwardServiceRegistration true
par STPRingNetwork.sw2.sc forwardProtocolRegistration true
par STPRingNetwork.sw2.sc interfaceMapping {}
par STPRingNetwork.sw2.sc serviceMapping {}
par STPRingNetwork.sw2.sc protocolMapping {}
par STPRingNetwork.sw2.cb typename "\"inet.common.MessageDispatcher\""
par STPRingNetwork.sw2.cb displayStringTextFormat "\"processed %p pk (%l)\""
attr mutable ""
par STPRingNetwork.sw2.cb interfaceTableModule "\"STPRingNetwork.sw2.interfaceTable\""
par STPRingNetwork.sw2.cb forwardServiceRegistration true
par STPRingNetwork.sw2.cb forwardProtocolRegistration true
par STPRingNetwork.sw2.cb interfaceMapping {}
par STPRingNetwork.sw2.cb serviceMapping {}
par STPRingNetwork.sw2.cb protocolMapping {}
par STPRingNetwork.sw2.bridging typename "\"inet.linklayer.ieee8021d.relay.Ieee8021dRelay\""
par STPRingNetwork.sw2.bridging displayStringTextFormat "\"proc: %p\\ndisc: %d\""
attr mutable ""
par STPRingNetwork.sw2.bridging macTableModule "\"STPRingNetwork.sw2.macTable\""
par STPRingNetwork.sw2.bridging interfaceTableModule "\"STPRingNetwork.sw2.interfaceTable\""
scalar STPRingNetwork.sw2.bridging "processed frames" 0
scalar STPRingNetwork.sw2.bridging "discarded frames" 0
scalar STPRingNetwork.sw2.bridging "number of received BPDUs from STP module" 0
scalar STPRingNetwork.sw2.bridging "number of received frames from network (including BPDUs)" 0
scalar STPRingNetwork.sw2.bridging "number of dropped frames (including BPDUs)" 0
scalar STPRingNetwork.sw2.bridging "number of delivered BPDUs to the STP module" 0
scalar STPRingNetwork.sw2.bridging "number of dispatched BPDU frames to the network" 0
scalar STPRingNetwork.sw2.bridging "number of dispatched non-BDPU frames to the network" 0
scalar STPRingNetwork.sw2.bridging packetDropped:count 0
attr interpolationmode none
attr recordingmode count
attr title "packets dropped, count"
scalar STPRingNetwork.sw2.bridging packetDropped:sum(packetBytes) 0
attr interpolationmode none
attr recordingmode sum(packetBytes)
attr title "packets dropped, sum(packetBytes)"
par STPRingNetwork.sw2.bl typename "\"inet.common.MessageDispatcher\""
par STPRingNetwork.sw2.bl displayStringTextFormat "\"processed %p pk (%l)\""
attr mutable ""
par STPRingNetwork.sw2.bl interfaceTableModule "\"STPRingNetwork.sw2.interfaceTable\""
par STPRingNetwork.sw2.bl forwardServiceRegistration true
par STPRingNetwork.sw2.bl forwardProtocolRegistration true
par STPRingNetwork.sw2.bl interfaceMapping {}
par STPRingNetwork.sw2.bl serviceMapping {}
par STPRingNetwork.sw2.bl protocolMapping {}
par STPRingNetwork.sw2.ethernet typename "\"inet.linklayer.ethernet.basic.EthernetEncapsulation\""
par STPRingNetwork.sw2.ethernet displayStringTextFormat "\"\""
attr mutable ""
par STPRingNetwork.sw2.ethernet registerProtocol true
par STPRingNetwork.sw2.ethernet interfaceTableModule "\"STPRingNetwork.sw2.interfaceTable\""
par STPRingNetwork.sw2.ethernet fcsMode "\"declared\""
attr enum declared,computed
par STPRingNetwork.sw2.ethernet stopOperationExtraTime -1s
attr unit s
par STPRingNetwork.sw2.ethernet stopOperationTimeout 2s
attr unit s
scalar STPRingNetwork.sw2.ethernet decapPk:count 0
attr interpolationmode none
attr recordingmode count
attr source decapPk
attr title "packets decapsulated, count"
scalar STPRingNetwork.sw2.ethernet decapPk:sum(packetBytes) 0
attr interpolationmode none
attr recordingmode sum(packetBytes)
attr source decapPk
attr title "packets decapsulated, sum(packetBytes)"
scalar STPRingNetwork.sw2.ethernet encapPk:count 0
attr interpolationmode none
attr recordingmode count
attr source encapPk
attr title "packets encapsulated, count"
scalar STPRingNetwork.sw2.ethernet encapPk:sum(packetBytes) 0
attr interpolationmode none
attr recordingmode sum(packetBytes)
attr source encapPk
attr title "packets encapsulated, sum(packetBytes)"
scalar STPRingNetwork.sw2.ethernet pauseSent:count 0
attr recordingmode count
attr title "pause sent, count"
scalar STPRingNetwork.sw2.ethernet pauseSent:sum 0
attr recordingmode sum
attr title "pause sent, sum"
par STPRingNetwork.sw2.li typename "\"inet.common.MessageDispatcher\""
par STPRingNetwork.sw2.li displayStringTextFormat "\"processed %p pk (%l)\""
attr mutable ""
par STPRingNetwork.sw2.li interfaceTableModule "\"STPRingNetwork.sw2.interfaceTable\""
par STPRingNetwork.sw2.li forwardServiceRegistration true
par STPRingNetwork.sw2.li forwardProtocolRegistration true
par STPRingNetwork.sw2.li interfaceMapping {}
par STPRingNetwork.sw2.li serviceMapping {}
par STPRingNetwork.sw2.li protocolMapping {}
par STPRingNetwork.sw2.eth[0].mac.phys$o.channel typename "\"ned.IdealChannel\""
par STPRingNetwork.sw2.eth[0].phys$i.channel typename "\"ned.IdealChannel\""
par STPRingNetwork.sw2.eth[0].upperLayerIn.channel typename "\"ned.IdealChannel\""
par STPRingNetwork.sw2.eth[0].mac.upperLayerOut.channel typename "\"ned.IdealChannel\""
par STPRingNetwork.sw2.eth[0].queue typename "\"inet.linklayer.ethernet.common.EthernetQueue\""
par STPRingNetwork.sw2.eth[0].queue displayStringTextFormat "\"contains %p pk (%l) pushed %u\\npulled %o removed %r dropped %d\""
attr mutable ""
par STPRingNetwork.sw2.eth[0].queue packetCapacity 1000
par STPRingNetwork.sw2.eth[0].queue dataCapacity -1b
attr unit b
par STPRingNetwork.sw2.eth[0].queue dropperClass "\"inet::queueing::PacketAtCollectionEndDropper\""
par STPRingNetwork.sw2.eth[0].queue comparatorClass "\"inet::EthernetFrameTypeComparator\""
par STPRingNetwork.sw2.eth[0].queue bufferModule "\"\""
scalar STPRingNetwork.sw2.eth[0].queue queueLength:last 0
attr autoWarmupFilter false
attr interpolationmode sample-hold
attr recordingmode last
attr source "warmup(atomic(constant0(packetPushEnded) + count(packetPushStarted) - count(packetPulled) - count(packetRemoved) - count(packetDropped)))"
attr title "queue length, last"
attr unit pk
scalar STPRingNetwork.sw2.eth[0].queue queueLength:max 0
attr autoWarmupFilter false
attr interpolationmode sample-hold
attr recordingmode max
attr source "warmup(atomic(constant0(packetPushEnded) + count(packetPushStarted) - count(packetPulled) - count(packetRemoved) - count(packetDropped)))"
attr title "queue length, max"
attr unit pk
scalar STPRingNetwork.sw2.eth[0].queue queueLength:timeavg 0
attr autoWarmupFilter false
attr interpolationmode sample-hold
attr recordingmode timeavg
attr source "warmup(atomic(constant0(packetPushEnded) + count(packetPushStarted) - count(packetPulled) - count(packetRemoved) - count(packetDropped)))"
attr title "queue length, timeavg"
attr unit pk
scalar STPRingNetwork.sw2.eth[0].queue queueBitLength:last 0
attr autoWarmupFilter false
attr interpolationmode sample-hold
attr recordingmode last
attr source "warmup(atomic(constant0(packetPushEnded) + sum(packetLength(packetPushStarted)) - sum(packetLength(packetPulled)) - sum(packetLength(packetRemoved)) - sum(packetLength(packetDropped))))"
attr title "queue bit length, last"
attr unit b
scalar STPRingNetwork.sw2.eth[0].queue queueBitLength:max 0
attr autoWarmupFilter false
attr interpolationmode sample-hold
attr recordingmode max
attr source "warmup(atomic(constant0(packetPushEnded) + sum(packetLength(packetPushStarted)) - sum(packetLength(packetPulled)) - sum(packetLength(packetRemoved)) - sum(packetLength(packetDropped))))"
attr title "queue bit length, max"
attr unit b
scalar STPRingNetwork.sw2.eth[0].queue queueBitLength:timeavg 0
attr autoWarmupFilter false
attr interpolationmode sample-hold
attr recordingmode timeavg
attr source "warmup(atomic(constant0(packetPushEnded) + sum(packetLength(packetPushStarted)) - sum(packetLength(packetPulled)) - sum(packetLength(packetRemoved)) - sum(packetLength(packetDropped))))"
attr title "queue bit length, timeavg"
attr unit b
statistic STPRingNetwork.sw2.eth[0].queue queueingTime:histogram
field count 0
field mean nan
field stddev nan
field min nan
field max nan
field sum 0
field sqrsum 0
attr interpolationmode none
attr recordingmode histogram
attr source queueingTime(packetPulled)
attr title "queueing times"
attr unit s
bin	-inf	0
bin	0	0
bin	1	0
scalar STPRingNetwork.sw2.eth[0].queue outgoingPackets:count 0
attr recordingmode count
attr source packetPulled
attr title "outgoing packets, count"
attr unit pk
scalar STPRingNetwork.sw2.eth[0].queue outgoingPacketLengths:sum 0
attr interpolationmode none
attr recordingmode sum
attr source packetLength(packetPulled)
attr title "outgoing packet lengths, sum"
attr unit b
statistic STPRingNetwork.sw2.eth[0].queue outgoingPacketLengths:histogram
field count 0
field mean nan
field stddev nan
field min nan
field max nan
field sum 0
field sqrsum 0
attr interpolationmode none
attr recordingmode histogram
attr source packetLength(packetPulled)
attr title "outgoing packet lengths"
attr unit b
bin	-inf	0
bin	0	0
bin	1	0
statistic STPRingNetwork.sw2.eth[0].queue flowQueueingTime:histogram
field count 0
field mean nan
field stddev nan
field min nan
field max nan
field sum 0
field sqrsum 0
attr interpolationmode none
attr recordingmode histogram
attr source queueingTime(demuxFlow(packetPulled))
attr title "flow queueing times"
attr unit s
bin	-inf	0
bin	0	0
bin	1	0
scalar STPRingNetwork.sw2.eth[0].queue incomingPackets:count 0
attr recordingmode count
attr source packetPushStarted
attr title "incoming packets, count"
attr unit pk
scalar STPRingNetwork.sw2.eth[0].queue incomingPacketLengths:sum 0
attr interpolationmode none
attr recordingmode sum
attr source packetLength(packetPushStarted)
attr title "incoming packet lengths, sum"
attr unit b
statistic STPRingNetwork.sw2.eth[0].queue incomingPacketLengths:histogram
field count 0
field mean nan
field stddev nan
field min nan
field max nan
field sum 0
field sqrsum 0
attr interpolationmode none
attr recordingmode histogram
attr source packetLength(packetPushStarted)
attr title "incoming packet lengths"
attr unit b
bin	-inf	0
bin	0	0
bin	1	0
scalar STPRingNetwork.sw2.eth[0].queue droppedPacketsQueueOverflow:count 0
attr interpolationmode none
attr recordingmode count
attr source packetDropReasonIsQueueOverflow(packetDropped)
attr title "dropped packets: queue overflow, count"
attr unit pk
scalar STPRingNetwork.sw2.eth[0].queue droppedPacketLengthsQueueOverflow:sum 0
attr interpolationmode none
attr recordingmode sum
attr source packetLength(packetDropReasonIsQueueOverflow(packetDropped))
attr title "dropped packet lengths: queue overflow, sum"
attr unit b
par STPRingNetwork.sw2.eth[0].mac typename "\"inet.linklayer.ethernet.basic.EthernetMacPhy\""
par STPRingNetwork.sw2.eth[0].mac displayStringTextFormat "\"rate: %b\\nsent: %s, rcvd: %r\\nqueue: %q, drop: %d\""
attr mutable ""
par STPRingNetwork.sw2.eth[0].mac interfaceTableModule "\"STPRingNetwork.sw2.interfaceTable\""
par STPRingNetwork.sw2.eth[0].mac sendRawBytes false
par STPRingNetwork.sw2.eth[0].mac promiscuous true
par STPRingNetwork.sw2.eth[0].mac duplexMode true
par STPRingNetwork.sw2.eth[0].mac allowNonstandardBitrate false
par STPRingNetwork.sw2.eth[0].mac receptionMode "\"auto\""
attr enum onStart,auto,onEnd,forceOnEnd
par STPRingNetwork.sw2.eth[0].mac mtu 1500B
attr unit B
par STPRingNetwork.sw2.eth[0].mac fcsMode "\"declared\""
attr enum declared,computed
par STPRingNetwork.sw2.eth[0].mac stopOperationExtraTime -1s
attr unit s
par STPRingNetwork.sw2.eth[0].mac stopOperationTimeout 2s
attr unit s
scalar STPRingNetwork.sw2.eth[0].mac "simulated time" 120
scalar STPRingNetwork.sw2.eth[0].mac full-duplex 1
scalar STPRingNetwork.sw2.eth[0].mac "frames/sec sent" 0
scalar STPRingNetwork.sw2.eth[0].mac "frames/sec rcvd" 0
scalar STPRingNetwork.sw2.eth[0].mac "bits/sec sent" 0
scalar STPRingNetwork.sw2.eth[0].mac "bits/sec rcvd" 0
scalar STPRingNetwork.sw2.eth[0].mac "rx channel idle (%)" 100
scalar STPRingNetwork.sw2.eth[0].mac "rx channel utilization (%)" 0
statistic STPRingNetwork.sw2.eth[0].mac throughput:histogram
field count 0
field mean nan
field stddev nan
field min nan
field max nan
field sum 0
field sqrsum 0
attr interpolationmode linear
attr recordingmode histogram
attr source throughput(transmissionEnded)
attr title throughput
attr unit bps
bin	-inf	0
bin	0	0
bin	1	0
statistic STPRingNetwork.sw2.eth[0].mac utilization:histogram
field count 0
field mean nan
field stddev nan
field min nan
field max nan
field sum 0
field sqrsum 0
attr interpolationmode linear
attr recordingmode histogram
attr source "100 * utilization(count(transmissionStarted) - count(transmissionEnded))"
attr title utilization
attr unit %
bin	-inf	0
bin	0	0
bin	1	0
scalar STPRingNetwork.sw2.eth[0].mac txPk:count 0
attr interpolationmode none
attr recordingmode count
attr source packetSentToLower
attr title "packets transmitted, count"
scalar STPRingNetwork.sw2.eth[0].mac txPk:sum(packetBytes) 0
attr interpolationmode none
attr recordingmode sum(packetBytes)
attr source packetSentToLower
attr title "packets transmitted, sum(packetBytes)"
scalar STPRingNetwork.sw2.eth[0].mac packetReceivedFromUpper:count 0
attr interpolationmode none
attr recordingmode count
attr source packetReceivedFromUpper
attr title "packet bytes from higher layer, count"
scalar STPRingNetwork.sw2.eth[0].mac packetReceivedFromUpper:sum(packetBytes) 0
attr interpolationmode none
attr recordingmode sum(packetBytes)
attr source packetReceivedFromUpper
attr title "packet bytes from higher layer, sum(packetBytes)"
scalar STPRingNetwork.sw2.eth[0].mac passedUpPk:count 0
attr interpolationmode none
attr recordingmode count
attr source packetSentToUpper
attr title "packets passed to higher layer, count"
scalar STPRingNetwork.sw2.eth[0].mac passedUpPk:sum(packetBytes) 0
attr interpolationmode none
attr recordingmode sum(packetBytes)
attr source packetSentToUpper
attr title "packets passed to higher layer, sum(packetBytes)"
scalar STPRingNetwork.sw2.eth[0].mac packetDropIncorrectlyReceived:count 0
attr interpolationmode none
attr recordingmode count
attr source packetDropReasonIsIncorrectlyReceived(packetDropped)
attr title "packet drop: incorrectly received, count"
scalar STPRingNetwork.sw2.eth[0].mac packetDropIncorrectlyReceived:sum(packetBytes) 0
attr interpolationmode none
attr recordingmode sum(packetBytes)
attr source packetDropReasonIsIncorrectlyReceived(packetDropped)
attr title "packet drop: incorrectly received, sum(packetBytes)"
scalar STPRingNetwork.sw2.eth[0].mac packetDropInterfaceDown:count 0
attr interpolationmode none
attr recordingmode count
attr source packetDropReasonIsInterfaceDown(packetDropped)
attr title "packet drop: interface down, count"
scalar STPRingNetwork.sw2.eth[0].mac packetDropInterfaceDown:sum(packetBytes) 0
attr interpolationmode none
attr recordingmode sum(packetBytes)
attr source packetDropReasonIsInterfaceDown(packetDropped)
attr title "packet drop: interface down, sum(packetBytes)"
scalar STPRingNetwork.sw2.eth[0].mac packetDropNotAddressedToUs:count 0
attr interpolationmode none
attr recordingmode count
attr source packetDropReasonIsNotAddressedToUs(packetDropped)
attr title "packet drop: not addressed to us, count"
scalar STPRingNetwork.sw2.eth[0].mac packetDropNotAddressedToUs:sum(packetBytes) 0
attr interpolationmode none
attr recordingmode sum(packetBytes)
attr source packetDropReasonIsNotAddressedToUs(packetDropped)
attr title "packet drop: not addressed to us, sum(packetBytes)"
scalar STPRingNetwork.sw2.eth[0].mac rxPausePkUnits:count 0
attr interpolationmode none
attr recordingmode count
attr title "pause units received, count"
scalar STPRingNetwork.sw2.eth[0].mac rxPausePkUnits:sum 0
attr interpolationmode none
attr recordingmode sum
attr title "pause units received, sum"
scalar STPRingNetwork.sw2.eth[0].mac txPausePkUnits:count 0
attr interpolationmode none
attr recordingmode count
attr title "pause units sent, count"
scalar STPRingNetwork.sw2.eth[0].mac txPausePkUnits:sum 0
attr interpolationmode none
attr recordingmode sum
attr title "pause units sent, sum"
scalar STPRingNetwork.sw2.eth[0].mac rxPkOk:count 0
attr interpolationmode none
attr recordingmode count
attr source rxPkOk
attr title "packets received OK, count"
scalar STPRingNetwork.sw2.eth[0].mac rxPkOk:sum(packetBytes) 0
attr interpolationmode none
attr recordingmode sum(packetBytes)
attr source rxPkOk
attr title "packets received OK, sum(packetBytes)"
par STPRingNetwork.sw2.eth[0] typename "\"inet.linklayer.ethernet.basic.EthernetInterface\""
par STPRingNetwork.sw2.eth[0] displayStringTextFormat "\"%a (%i)\\n%m\""
attr mutable ""
par STPRingNetwork.sw2.eth[0] recordPcap false
par STPRingNetwork.sw2.eth[0] numPcapRecorders 0
par STPRingNetwork.sw2.eth[0] interfaceTableModule "\"STPRingNetwork.sw2.interfaceTable\""
par STPRingNetwork.sw2.eth[0] protocol "\"ethernetmac\""
par STPRingNetwork.sw2.eth[0] address "\"0A-AA-00-00-00-04\""
attr mutable ""
par STPRingNetwork.sw2.eth[0] duplexMode true
par STPRingNetwork.sw2.eth[0] csmacdSupport false
par STPRingNetwork.sw2.eth[0] bitrate 0bps
attr unit bps
par STPRingNetwork.sw2.eth[0] fcsMode "\"declared\""
attr enum declared,computed
scalar STPRingNetwork.sw2.eth[0] packetDropInterfaceDown:count 0
attr interpolationmode none
attr recordingmode count
attr source packetDropReasonIsInterfaceDown(packetDropped)
attr title "packet drops: interface down, count"
scalar STPRingNetwork.sw2.eth[0] packetDropInterfaceDown:sum(packetBytes) 0
attr interpolationmode none
attr recordingmode sum(packetBytes)
attr source packetDropReasonIsInterfaceDown(packetDropped)
attr title "packet drops: interface down, sum(packetBytes)"
scalar STPRingNetwork.sw2.eth[0] packetDropNoCarrier:count 0
attr interpolationmode none
attr recordingmode count
attr source packetDropReasonIsNoCarrier(packetDropped)
attr title "packet drops: no carrier, count"
scalar STPRingNetwork.sw2.eth[0] packetDropNoCarrier:sum(packetBytes) 0
attr interpolationmode none
attr recordingmode sum(packetBytes)
attr source packetDropReasonIsNoCarrier(packetDropped)
attr title "packet drops: no carrier, sum(packetBytes)"
par STPRingNetwork.sw2.eth[1].mac.phys$o.channel typename "\"ned.IdealChannel\""
par STPRingNetwork.sw2.eth[1].phys$i.channel typename "\"ned.IdealChannel\""
par STPRingNetwork.sw2.eth[1].upperLayerIn.channel typename "\"ned.IdealChannel\""
par STPRingNetwork.sw2.eth[1].mac.upperLayerOut.channel typename "\"ned.IdealChannel\""
par STPRingNetwork.sw2.eth[1].queue typename "\"inet.linklayer.ethernet.common.EthernetQueue\""
par STPRingNetwork.sw2.eth[1].queue displayStringTextFormat "\"contains %p pk (%l) pushed %u\\npulled %o removed %r dropped %d\""
attr mutable ""
par STPRingNetwork.sw2.eth[1].queue packetCapacity 1000
par STPRingNetwork.sw2.eth[1].queue dataCapacity -1b
attr unit b
par STPRingNetwork.sw2.eth[1].queue dropperClass "\"inet::queueing::PacketAtCollectionEndDropper\""
par STPRingNetwork.sw2.eth[1].queue comparatorClass "\"inet::EthernetFrameTypeComparator\""
par STPRingNetwork.sw2.eth[1].queue bufferModule "\"\""
scalar STPRingNetwork.sw2.eth[1].queue queueLength:last 0
attr autoWarmupFilter false
attr interpolationmode sample-hold
attr recordingmode last
attr source "warmup(atomic(constant0(packetPushEnded) + count(packetPushStarted) - count(packetPulled) - count(packetRemoved) - count(packetDropped)))"
attr title "queue length, last"
attr unit pk
scalar STPRingNetwork.sw2.eth[1].queue queueLength:max 0
attr autoWarmupFilter false
attr interpolationmode sample-hold
attr recordingmode max
attr source "warmup(atomic(constant0(packetPushEnded) + count(packetPushStarted) - count(packetPulled) - count(packetRemoved) - count(packetDropped)))"
attr title "queue length, max"
attr unit pk
scalar STPRingNetwork.sw2.eth[1].queue queueLength:timeavg 0
attr autoWarmupFilter false
attr interpolationmode sample-hold
attr recordingmode timeavg
attr source "warmup(atomic(constant0(packetPushEnded) + count(packetPushStarted) - count(packetPulled) - count(packetRemoved) - count(packetDropped)))"
attr title "queue length, timeavg"
attr unit pk
scalar STPRingNetwork.sw2.eth[1].queue queueBitLength:last 0
attr autoWarmupFilter false
attr interpolationmode sample-hold
attr recordingmode last
attr source "warmup(atomic(constant0(packetPushEnded) + sum(packetLength(packetPushStarted)) - sum(packetLength(packetPulled)) - sum(packetLength(packetRemoved)) - sum(packetLength(packetDropped))))"
attr title "queue bit length, last"
attr unit b
scalar STPRingNetwork.sw2.eth[1].queue queueBitLength:max 0
attr autoWarmupFilter false
attr interpolationmode sample-hold
attr recordingmode max
attr source "warmup(atomic(constant0(packetPushEnded) + sum(packetLength(packetPushStarted)) - sum(packetLength(packetPulled)) - sum(packetLength(packetRemoved)) - sum(packetLength(packetDropped))))"
attr title "queue bit length, max"
attr unit b
scalar STPRingNetwork.sw2.eth[1].queue queueBitLength:timeavg 0
attr autoWarmupFilter false
attr interpolationmode sample-hold
attr recordingmode timeavg
attr source "warmup(atomic(constant0(packetPushEnded) + sum(packetLength(packetPushStarted)) - sum(packetLength(packetPulled)) - sum(packetLength(packetRemoved)) - sum(packetLength(packetDropped))))"
attr title "queue bit length, timeavg"
attr unit b
statistic STPRingNetwork.sw2.eth[1].queue queueingTime:histogram
field count 0
field mean nan
field stddev nan
field min nan
field max nan
field sum 0
field sqrsum 0
attr interpolationmode none
attr recordingmode histogram
attr source queueingTime(packetPulled)
attr title "queueing times"
attr unit s
bin	-inf	0
bin	0	0
bin	1	0
scalar STPRingNetwork.sw2.eth[1].queue outgoingPackets:count 0
attr recordingmode count
attr source packetPulled
attr title "outgoing packets, count"
attr unit pk
scalar STPRingNetwork.sw2.eth[1].queue outgoingPacketLengths:sum 0
attr interpolationmode none
attr recordingmode sum
attr source packetLength(packetPulled)
attr title "outgoing packet lengths, sum"
attr unit b
statistic STPRingNetwork.sw2.eth[1].queue outgoingPacketLengths:histogram
field count 0
field mean nan
field stddev nan
field min nan
field max nan
field sum 0
field sqrsum 0
attr interpolationmode none
attr recordingmode histogram
attr source packetLength(packetPulled)
attr title "outgoing packet lengths"
attr unit b
bin	-inf	0
bin	0	0
bin	1	0
statistic STPRingNetwork.sw2.eth[1].queue flowQueueingTime:histogram
field count 0
field mean nan
field stddev nan
field min nan
field max nan
field sum 0
field sqrsum 0
attr interpolationmode none
attr recordingmode histogram
attr source queueingTime(demuxFlow(packetPulled))
attr title "flow queueing times"
attr unit s
bin	-inf	0
bin	0	0
bin	1	0
scalar STPRingNetwork.sw2.eth[1].queue incomingPackets:count 0
attr recordingmode count
attr source packetPushStarted
attr title "incoming packets, count"
attr unit pk
scalar STPRingNetwork.sw2.eth[1].queue incomingPacketLengths:sum 0
attr interpolationmode none
attr recordingmode sum
attr source packetLength(packetPushStarted)
attr title "incoming packet lengths, sum"
attr unit b
statistic STPRingNetwork.sw2.eth[1].queue incomingPacketLengths:histogram
field count 0
field mean nan
field stddev nan
field min nan
field max nan
field sum 0
field sqrsum 0
attr interpolationmode none
attr recordingmode histogram
attr source packetLength(packetPushStarted)
attr title "incoming packet lengths"
attr unit b
bin	-inf	0
bin	0	0
bin	1	0
scalar STPRingNetwork.sw2.eth[1].queue droppedPacketsQueueOverflow:count 0
attr interpolationmode none
attr recordingmode count
attr source packetDropReasonIsQueueOverflow(packetDropped)
attr title "dropped packets: queue overflow, count"
attr unit pk
scalar STPRingNetwork.sw2.eth[1].queue droppedPacketLengthsQueueOverflow:sum 0
attr interpolationmode none
attr recordingmode sum
attr source packetLength(packetDropReasonIsQueueOverflow(packetDropped))
attr title "dropped packet lengths: queue overflow, sum"
attr unit b
par STPRingNetwork.sw2.eth[1].mac typename "\"inet.linklayer.ethernet.basic.EthernetMacPhy\""
par STPRingNetwork.sw2.eth[1].mac displayStringTextFormat "\"rate: %b\\nsent: %s, rcvd: %r\\nqueue: %q, drop: %d\""
attr mutable ""
par STPRingNetwork.sw2.eth[1].mac interfaceTableModule "\"STPRingNetwork.sw2.interfaceTable\""
par STPRingNetwork.sw2.eth[1].mac sendRawBytes false
par STPRingNetwork.sw2.eth[1].mac promiscuous true
par STPRingNetwork.sw2.eth[1].mac duplexMode true
par STPRingNetwork.sw2.eth[1].mac allowNonstandardBitrate false
par STPRingNetwork.sw2.eth[1].mac receptionMode "\"auto\""
attr enum onStart,auto,onEnd,forceOnEnd
par STPRingNetwork.sw2.eth[1].mac mtu 1500B
attr unit B
par STPRingNetwork.sw2.eth[1].mac fcsMode "\"declared\""
attr enum declared,computed
par STPRingNetwork.sw2.eth[1].mac stopOperationExtraTime -1s
attr unit s
par STPRingNetwork.sw2.eth[1].mac stopOperationTimeout 2s
attr unit s
scalar STPRingNetwork.sw2.eth[1].mac "simulated time" 120
scalar STPRingNetwork.sw2.eth[1].mac full-duplex 1
scalar STPRingNetwork.sw2.eth[1].mac "frames/sec sent" 0
scalar STPRingNetwork.sw2.eth[1].mac "frames/sec rcvd" 0
scalar STPRingNetwork.sw2.eth[1].mac "bits/sec sent" 0
scalar STPRingNetwork.sw2.eth[1].mac "bits/sec rcvd" 0
scalar STPRingNetwork.sw2.eth[1].mac "rx channel idle (%)" 100
scalar STPRingNetwork.sw2.eth[1].mac "rx channel utilization (%)" 0
statistic STPRingNetwork.sw2.eth[1].mac throughput:histogram
field count 0
field mean nan
field stddev nan
field min nan
field max nan
field sum 0
field sqrsum 0
attr interpolationmode linear
attr recordingmode histogram
attr source throughput(transmissionEnded)
attr title throughput
attr unit bps
bin	-inf	0
bin	0	0
bin	1	0
statistic STPRingNetwork.sw2.eth[1].mac utilization:histogram
field count 0
field mean nan
field stddev nan
field min nan
field max nan
field sum 0
field sqrsum 0
attr interpolationmode linear
attr recordingmode histogram
attr source "100 * utilization(count(transmissionStarted) - count(transmissionEnded))"
attr title utilization
attr unit %
bin	-inf	0
bin	0	0
bin	1	0
scalar STPRingNetwork.sw2.eth[1].mac txPk:count 0
attr interpolationmode none
attr recordingmode count
attr source packetSentToLower
attr title "packets transmitted, count"
[...]
attr title "packets received OK, sum(packetBytes)"
par STPRingNetwork.host2.eth[0] typename "\"inet.linklayer.ethernet.basic.EthernetInterface\""
par STPRingNetwork.host2.eth[0] displayStringTextFormat "\"%a (%i)\\n%m\""
attr mutable ""
par STPRingNetwork.host2.eth[0] recordPcap false
par STPRingNetwork.host2.eth[0] numPcapRecorders 0
par STPRingNetwork.host2.eth[0] interfaceTableModule "\"STPRingNetwork.host2.interfaceTable\""
par STPRingNetwork.host2.eth[0] protocol "\"ethernetmac\""
par STPRingNetwork.host2.eth[0] address "\"0A-AA-00-00-00-0C\""
attr mutable ""
par STPRingNetwork.host2.eth[0] duplexMode true
par STPRingNetwork.host2.eth[0] csmacdSupport false
par STPRingNetwork.host2.eth[0] bitrate 0bps
attr unit bps
par STPRingNetwork.host2.eth[0] fcsMode "\"declared\""
attr enum declared,computed
scalar STPRingNetwork.host2.eth[0] packetDropInterfaceDown:count 0
attr interpolationmode none
attr recordingmode count
attr source packetDropReasonIsInterfaceDown(packetDropped)
attr title "packet drops: interface down, count"
scalar STPRingNetwork.host2.eth[0] packetDropInterfaceDown:sum(packetBytes) 0
attr interpolationmode none
attr recordingmode sum(packetBytes)
attr source packetDropReasonIsInterfaceDown(packetDropped)
attr title "packet drops: interface down, sum(packetBytes)"
scalar STPRingNetwork.host2.eth[0] packetDropNoCarrier:count 0
attr interpolationmode none
attr recordingmode count
attr source packetDropReasonIsNoCarrier(packetDropped)
attr title "packet drops: no carrier, count"
scalar STPRingNetwork.host2.eth[0] packetDropNoCarrier:sum(packetBytes) 0
attr interpolationmode none
attr recordingmode sum(packetBytes)
attr source packetDropReasonIsNoCarrier(packetDropped)
attr title "packet drops: no carrier, sum(packetBytes)"
par STPRingNetwork.host2.ipv4.transportIn.channel typename "\"ned.IdealChannel\""
par STPRingNetwork.host2.ipv4.up.out[0].channel typename "\"ned.IdealChannel\""
par STPRingNetwork.host2.ipv4.lp.out[2].channel typename "\"ned.IdealChannel\""
par STPRingNetwork.host2.ipv4.ifIn.channel typename "\"ned.IdealChannel\""
par STPRingNetwork.host2.ipv4.configurator typename "\"inet.networklayer.configurator.ipv4.Ipv4NodeConfigurator\""
par STPRingNetwork.host2.ipv4.configurator displayStringTextFormat "\"\""
attr mutable ""
par STPRingNetwork.host2.ipv4.configurator interfaceTableModule "\"STPRingNetwork.host2.interfaceTable\""
par STPRingNetwork.host2.ipv4.configurator routingTableModule "\"STPRingNetwork.host2.ipv4.routingTable\""
par STPRingNetwork.host2.ipv4.configurator networkConfiguratorModule "\"configurator\""
par STPRingNetwork.host2.ipv4.configurator configureRoutingTable true
par STPRingNetwork.host2.ipv4.routingTable typename "\"inet.networklayer.ipv4.Ipv4RoutingTable\""
par STPRingNetwork.host2.ipv4.routingTable displayStringTextFormat "\"\""
attr mutable ""
par STPRingNetwork.host2.ipv4.routingTable interfaceTableModule "\"STPRingNetwork.host2.interfaceTable\""
par STPRingNetwork.host2.ipv4.routingTable routerId "\"auto\""
par STPRingNetwork.host2.ipv4.routingTable netmaskRoutes "\"*\""
par STPRingNetwork.host2.ipv4.routingTable forwarding false
par STPRingNetwork.host2.ipv4.routingTable multicastForwarding false
par STPRingNetwork.host2.ipv4.routingTable useAdminDist false
par STPRingNetwork.host2.ipv4.routingTable routingFile "\"\""
par STPRingNetwork.host2.ipv4.natTable typename "\"inet.networklayer.ipv4.Ipv4NatTable\""
par STPRingNetwork.host2.ipv4.natTable displayStringTextFormat "\"\""
attr mutable ""
par STPRingNetwork.host2.ipv4.natTable networkProtocolModule "\"^.ip\""
par STPRingNetwork.host2.ipv4.natTable config "xml('<config/>\\n')"
par STPRingNetwork.host2.ipv4.up typename "\"inet.common.MessageDispatcher\""
par STPRingNetwork.host2.ipv4.up displayStringTextFormat "\"processed %p pk (%l)\""
attr mutable ""
par STPRingNetwork.host2.ipv4.up interfaceTableModule "\"STPRingNetwork.host2.interfaceTable\""
par STPRingNetwork.host2.ipv4.up forwardServiceRegistration true
par STPRingNetwork.host2.ipv4.up forwardProtocolRegistration true
par STPRingNetwork.host2.ipv4.up interfaceMapping {}
par STPRingNetwork.host2.ipv4.up serviceMapping {}
par STPRingNetwork.host2.ipv4.up protocolMapping {}
par STPRingNetwork.host2.ipv4.igmp typename "\"inet.networklayer.ipv4.Igmpv2\""
par STPRingNetwork.host2.ipv4.igmp displayStringTextFormat "\"\""
attr mutable ""
par STPRingNetwork.host2.ipv4.igmp interfaceTableModule "\"STPRingNetwork.host2.interfaceTable\""
par STPRingNetwork.host2.ipv4.igmp routingTableModule "\"STPRingNetwork.host2.ipv4.routingTable\""
par STPRingNetwork.host2.ipv4.igmp checksumMode "\"declared\""
attr enum declared,computed
par STPRingNetwork.host2.ipv4.igmp enabled true
par STPRingNetwork.host2.ipv4.igmp robustnessVariable 2
par STPRingNetwork.host2.ipv4.igmp queryInterval 125s
attr unit s
par STPRingNetwork.host2.ipv4.igmp queryResponseInterval 10s
attr unit s
par STPRingNetwork.host2.ipv4.igmp groupMembershipInterval 260s
attr unit s
par STPRingNetwork.host2.ipv4.igmp otherQuerierPresentInterval 255s
attr unit s
par STPRingNetwork.host2.ipv4.igmp startupQueryInterval 31.25s
attr unit s
par STPRingNetwork.host2.ipv4.igmp startupQueryCount 2
par STPRingNetwork.host2.ipv4.igmp lastMemberQueryInterval 1s
attr unit s
par STPRingNetwork.host2.ipv4.igmp lastMemberQueryCount 2
par STPRingNetwork.host2.ipv4.igmp unsolicitedReportInterval 10s
attr unit s
par STPRingNetwork.host2.ipv4.icmp typename "\"inet.networklayer.ipv4.Icmp\""
par STPRingNetwork.host2.ipv4.icmp displayStringTextFormat "\"\""
attr mutable ""
par STPRingNetwork.host2.ipv4.icmp interfaceTableModule "\"STPRingNetwork.host2.interfaceTable\""
par STPRingNetwork.host2.ipv4.icmp routingTableModule "\"STPRingNetwork.host2.ipv4.routingTable\""
par STPRingNetwork.host2.ipv4.icmp checksumMode "\"declared\""
attr enum declared,computed
attr mutable ""
par STPRingNetwork.host2.ipv4.icmp quoteLength 8B
attr mutable ""
attr unit B
par STPRingNetwork.host2.ipv4.mp typename "\"inet.common.MessageDispatcher\""
par STPRingNetwork.host2.ipv4.mp displayStringTextFormat "\"processed %p pk (%l)\""
attr mutable ""
par STPRingNetwork.host2.ipv4.mp interfaceTableModule "\"STPRingNetwork.host2.interfaceTable\""
par STPRingNetwork.host2.ipv4.mp forwardServiceRegistration true
par STPRingNetwork.host2.ipv4.mp forwardProtocolRegistration true
par STPRingNetwork.host2.ipv4.mp interfaceMapping {}
par STPRingNetwork.host2.ipv4.mp serviceMapping {}
par STPRingNetwork.host2.ipv4.mp protocolMapping {}
par STPRingNetwork.host2.ipv4.ip typename "\"inet.networklayer.ipv4.Ipv4\""
par STPRingNetwork.host2.ipv4.ip displayStringTextFormat "\"\""
attr mutable ""
par STPRingNetwork.host2.ipv4.ip interfaceTableModule "\"STPRingNetwork.host2.interfaceTable\""
par STPRingNetwork.host2.ipv4.ip routingTableModule "\"STPRingNetwork.host2.ipv4.routingTable\""
par STPRingNetwork.host2.ipv4.ip arpModule "\"STPRingNetwork.host2.ipv4.arp\""
par STPRingNetwork.host2.ipv4.ip icmpModule "\"STPRingNetwork.host2.ipv4.icmp\""
par STPRingNetwork.host2.ipv4.ip checksumMode "\"declared\""
attr enum declared,computed
par STPRingNetwork.host2.ipv4.ip timeToLive 32
par STPRingNetwork.host2.ipv4.ip multicastTimeToLive 32
par STPRingNetwork.host2.ipv4.ip fragmentTimeout 60s
attr unit s
par STPRingNetwork.host2.ipv4.ip limitedBroadcast false
par STPRingNetwork.host2.ipv4.ip directBroadcastInterfaces "\"\""
par STPRingNetwork.host2.ipv4.ip enableLocalOutMulticastRouting false
par STPRingNetwork.host2.ipv4.ip enableTimestampOption false
par STPRingNetwork.host2.ipv4.ip maxLifetime -1s
attr unit s
scalar STPRingNetwork.host2.ipv4.ip packetDropAddressResolutionFailed:count 0
attr interpolationmode none
attr recordingmode count
attr source packetDropReasonIsAddressResolutionFailed(packetDropped)
attr title "packet drop: address resolution failed, count"
scalar STPRingNetwork.host2.ipv4.ip packetDropAddressResolutionFailed:sum(packetBytes) 0
attr interpolationmode none
attr recordingmode sum(packetBytes)
attr source packetDropReasonIsAddressResolutionFailed(packetDropped)
attr title "packet drop: address resolution failed, sum(packetBytes)"
scalar STPRingNetwork.host2.ipv4.ip packetDropHopLimitReached:count 0
attr interpolationmode none
attr recordingmode count
attr source packetDropReasonIsHopLimitReached(packetDropped)
attr title "packet drop: hop limit reached, count"
scalar STPRingNetwork.host2.ipv4.ip packetDropHopLimitReached:sum(packetBytes) 0
attr interpolationmode none
attr recordingmode sum(packetBytes)
attr source packetDropReasonIsHopLimitReached(packetDropped)
attr title "packet drop: hop limit reached, sum(packetBytes)"
scalar STPRingNetwork.host2.ipv4.ip packetDropForwardingDisabled:count 0
attr interpolationmode none
attr recordingmode count
attr source packetDropReasonIsForwardingDisabled(packetDropped)
attr title "packet drop: forwarding disabled, count"
scalar STPRingNetwork.host2.ipv4.ip packetDropForwardingDisabled:sum(packetBytes) 0
attr interpolationmode none
attr recordingmode sum(packetBytes)
attr source packetDropReasonIsForwardingDisabled(packetDropped)
attr title "packet drop: forwarding disabled, sum(packetBytes)"
scalar STPRingNetwork.host2.ipv4.ip packetDropLifetimeExpired:count 0
attr interpolationmode none
attr recordingmode count
attr source packetDropReasonIsLifetimeExpired(packetDropped)
attr title "packet drop: lifetime expired, count"
scalar STPRingNetwork.host2.ipv4.ip packetDropLifetimeExpired:sum(packetBytes) 0
attr interpolationmode none
attr recordingmode sum(packetBytes)
attr source packetDropReasonIsLifetimeExpired(packetDropped)
attr title "packet drop: lifetime expired, sum(packetBytes)"
scalar STPRingNetwork.host2.ipv4.ip packetDropNoInterfaceFound:count 0
attr interpolationmode none
attr recordingmode count
attr source packetDropReasonIsNoInterfaceFound(packetDropped)
attr title "packet drop: no interface found, count"
scalar STPRingNetwork.host2.ipv4.ip packetDropNoInterfaceFound:sum(packetBytes) 0
attr interpolationmode none
attr recordingmode sum(packetBytes)
attr source packetDropReasonIsNoInterfaceFound(packetDropped)
attr title "packet drop: no interface found, sum(packetBytes)"
scalar STPRingNetwork.host2.ipv4.ip packetDropNoRouteFound:count 0
attr interpolationmode none
attr recordingmode count
attr source packetDropReasonIsNoRouteFound(packetDropped)
attr title "packet drop: no route found, count"
scalar STPRingNetwork.host2.ipv4.ip packetDropNoRouteFound:sum(packetBytes) 0
attr interpolationmode none
attr recordingmode sum(packetBytes)
attr source packetDropReasonIsNoRouteFound(packetDropped)
attr title "packet drop: no route found, sum(packetBytes)"
scalar STPRingNetwork.host2.ipv4.ip packetDropUndefined:count 0
attr interpolationmode none
attr recordingmode count
attr source packetDropReasonIsUndefined(packetDropped)
attr title "packet drop: undefined, count"
scalar STPRingNetwork.host2.ipv4.ip packetDropUndefined:sum(packetBytes) 0
attr interpolationmode none
attr recordingmode sum(packetBytes)
attr source packetDropReasonIsUndefined(packetDropped)
attr title "packet drop: undefined, sum(packetBytes)"
par STPRingNetwork.host2.ipv4.arp typename "\"inet.networklayer.arp.ipv4.Arp\""
par STPRingNetwork.host2.ipv4.arp displayStringTextFormat "\"\""
attr mutable ""
par STPRingNetwork.host2.ipv4.arp interfaceTableModule "\"STPRingNetwork.host2.interfaceTable\""
par STPRingNetwork.host2.ipv4.arp routingTableModule "\"STPRingNetwork.host2.ipv4.routingTable\""
par STPRingNetwork.host2.ipv4.arp retryTimeout 1s
attr unit s
par STPRingNetwork.host2.ipv4.arp retryCount 3
par STPRingNetwork.host2.ipv4.arp cacheTimeout 120s
attr unit s
par STPRingNetwork.host2.ipv4.arp proxyArpInterfaces "\"\""
scalar STPRingNetwork.host2.ipv4.arp arpReplySent:count 0
attr recordingmode count
attr source arpReplySent
attr title "ARP replies sent, count"
scalar STPRingNetwork.host2.ipv4.arp arpReplySent:sum(packetBytes) 0
attr recordingmode sum(packetBytes)
attr source arpReplySent
attr title "ARP replies sent, sum(packetBytes)"
scalar STPRingNetwork.host2.ipv4.arp arpRequestSent:count 0
attr recordingmode count
attr source arpRequestSent
attr title "ARP request sent, count"
scalar STPRingNetwork.host2.ipv4.arp arpRequestSent:sum(packetBytes) 0
attr recordingmode sum(packetBytes)
attr source arpRequestSent
attr title "ARP request sent, sum(packetBytes)"
scalar STPRingNetwork.host2.ipv4.arp arpResolutionFailed:count 0
attr recordingmode count
attr title "ARP failed resolutions, count"
scalar STPRingNetwork.host2.ipv4.arp arpResolutionCompleted:count 0
attr recordingmode count
attr title "ARP completed resolutions, count"
scalar STPRingNetwork.host2.ipv4.arp arpResolutionInitiated:count 0
attr recordingmode count
attr title "ARP initiated resolutions, count"
par STPRingNetwork.host2.ipv4.lp typename "\"inet.common.MessageDispatcher\""
par STPRingNetwork.host2.ipv4.lp displayStringTextFormat "\"processed %p pk (%l)\""
attr mutable ""
par STPRingNetwork.host2.ipv4.lp interfaceTableModule "\"STPRingNetwork.host2.interfaceTable\""
par STPRingNetwork.host2.ipv4.lp forwardServiceRegistration true
par STPRingNetwork.host2.ipv4.lp forwardProtocolRegistration true
par STPRingNetwork.host2.ipv4.lp interfaceMapping {}
par STPRingNetwork.host2.ipv4.lp serviceMapping {}
par STPRingNetwork.host2.ipv4.lp protocolMapping {}
par STPRingNetwork.host2.ipv4 typename "\"inet.networklayer.ipv4.Ipv4NetworkLayer\""
par STPRingNetwork.host2.ipv4 displayStringTextFormat "\"%i\""
attr mutable ""
par STPRingNetwork.host2.ipv4 forwarding false
par STPRingNetwork.host2.ipv4 multicastForwarding false
par STPRingNetwork.host2.ipv4 hasIpsec false
par STPRingNetwork.host2.ipv4 interfaceTableModule "\"STPRingNetwork.host2.interfaceTable\""
par STPRingNetwork.host2.nl typename "\"inet.common.MessageDispatcher\""
par STPRingNetwork.host2.nl displayStringTextFormat "\"processed %p pk (%l)\""
attr mutable ""
par STPRingNetwork.host2.nl interfaceTableModule "\"STPRingNetwork.host2.interfaceTable\""
par STPRingNetwork.host2.nl forwardServiceRegistration true
par STPRingNetwork.host2.nl forwardProtocolRegistration true
par STPRingNetwork.host2.nl interfaceMapping {}
par STPRingNetwork.host2.nl serviceMapping {}
par STPRingNetwork.host2.nl protocolMapping {}
par STPRingNetwork.host2.udp typename "\"inet.transportlayer.udp.Udp\""
par STPRingNetwork.host2.udp displayStringTextFormat "\"\""
attr mutable ""
par STPRingNetwork.host2.udp interfaceTableModule "\"STPRingNetwork.host2.interfaceTable\""
par STPRingNetwork.host2.udp icmpModule "\"^.ipv4.icmp\""
par STPRingNetwork.host2.udp icmpv6Module "\"^.ipv6.icmpv6\""
par STPRingNetwork.host2.udp checksumMode "\"declared\""
attr enum disabled,declared,computed
par STPRingNetwork.host2.udp defaultMulticastLoop true
scalar STPRingNetwork.host2.udp packetReceived:count 0
attr interpolationmode none
attr recordingmode count
attr source packetReceived
attr title "packets received, count"
scalar STPRingNetwork.host2.udp packetReceived:sum(packetBytes) 0
attr interpolationmode none
attr recordingmode sum(packetBytes)
attr source packetReceived
attr title "packets received, sum(packetBytes)"
scalar STPRingNetwork.host2.udp packetSent:count 0
attr interpolationmode none
attr recordingmode count
attr source packetSent
attr title "packets sent, count"
scalar STPRingNetwork.host2.udp packetSent:sum(packetBytes) 0
attr interpolationmode none
attr recordingmode sum(packetBytes)
attr source packetSent
attr title "packets sent, sum(packetBytes)"
scalar STPRingNetwork.host2.udp passedUpPk:count 0
attr interpolationmode none
attr recordingmode count
attr source packetSentToUpper
attr title "packets passed up, count"
scalar STPRingNetwork.host2.udp droppedPkWrongPort:count 0
attr interpolationmode none
attr recordingmode count
attr source packetDropReasonIsNoPortFound(packetDropped)
attr title "packets dropped (wrong port), count"
scalar STPRingNetwork.host2.udp droppedPkBadChecksum:count 0
attr interpolationmode none
attr recordingmode count
attr source packetDropReasonIsIncorrectlyReceived(packetDropped)
attr title "packets dropped (checksum error), count"
par STPRingNetwork.host2.tcp typename "\"inet.transportlayer.tcp.Tcp\""
par STPRingNetwork.host2.tcp displayStringTextFormat "\"\""
attr mutable ""
par STPRingNetwork.host2.tcp checksumMode "\"declared\""
attr enum declared,computed
par STPRingNetwork.host2.tcp advertisedWindow 7504
par STPRingNetwork.host2.tcp delayedAcksEnabled false
par STPRingNetwork.host2.tcp nagleEnabled true
par STPRingNetwork.host2.tcp limitedTransmitEnabled false
par STPRingNetwork.host2.tcp increasedIWEnabled false
par STPRingNetwork.host2.tcp sackSupport false
par STPRingNetwork.host2.tcp windowScalingSupport false
par STPRingNetwork.host2.tcp windowScalingFactor -1
par STPRingNetwork.host2.tcp timestampSupport false
par STPRingNetwork.host2.tcp mss 536
par STPRingNetwork.host2.tcp msl 120s
attr unit s
par STPRingNetwork.host2.tcp tcpAlgorithmClass "\"TcpReno\""
attr examples TcpVegas,TcpWestwood,DcTcp,TcpNewReno,TcpReno,TcpTahoe,TcpNoCongestionControl
par STPRingNetwork.host2.tcp dupthresh 3
par STPRingNetwork.host2.tcp initialSsthresh 4294967295
par STPRingNetwork.host2.tcp stopOperationExtraTime 0s
attr unit s
par STPRingNetwork.host2.tcp stopOperationTimeout 2s
attr unit s
par STPRingNetwork.host2.tcp ecnWillingness false
par STPRingNetwork.host2.tcp dctcpGamma 0.0625
par STPRingNetwork.host2.tn typename "\"inet.common.MessageDispatcher\""
par STPRingNetwork.host2.tn displayStringTextFormat "\"processed %p pk (%l)\""
attr mutable ""
par STPRingNetwork.host2.tn interfaceTableModule "\"STPRingNetwork.host2.interfaceTable\""
par STPRingNetwork.host2.tn forwardServiceRegistration true
par STPRingNetwork.host2.tn forwardProtocolRegistration true
par STPRingNetwork.host2.tn interfaceMapping {}
par STPRingNetwork.host2.tn serviceMapping {}
par STPRingNetwork.host2.tn protocolMapping {}
par STPRingNetwork.host2.at typename "\"inet.common.MessageDispatcher\""
par STPRingNetwork.host2.at displayStringTextFormat "\"processed %p pk (%l)\""
attr mutable ""
par STPRingNetwork.host2.at interfaceTableModule "\"STPRingNetwork.host2.interfaceTable\""
par STPRingNetwork.host2.at forwardServiceRegistration true
par STPRingNetwork.host2.at forwardProtocolRegistration true
par STPRingNetwork.host2.at interfaceMapping {}
par STPRingNetwork.host2.at serviceMapping {}
par STPRingNetwork.host2.at protocolMapping {}
par STPRingNetwork.host2 typename "\"inet.node.inet.StandardHost\""
par STPRingNetwork.host2 displayStringTextFormat "\"\""
attr mutable ""
par STPRingNetwork.host2 hasStatus false
par STPRingNetwork.host2 hasEnvironment false
par STPRingNetwork.host2 osgModel "\"\""
par STPRingNetwork.host2 osgModelColor "\"\""
par STPRingNetwork.host2 canvasImage "\"\""
par STPRingNetwork.host2 canvasImageColor "\"\""
par STPRingNetwork.host2 recordPcap false
par STPRingNetwork.host2 numPcapRecorders 0
par STPRingNetwork.host2 numLoInterfaces 1
par STPRingNetwork.host2 numWlanInterfaces 0
par STPRingNetwork.host2 numEthInterfaces 0
par STPRingNetwork.host2 numPppInterfaces 0
par STPRingNetwork.host2 numTunInterfaces 0
par STPRingNetwork.host2 numVirtInterfaces 0
par STPRingNetwork.host2 fcsMode "\"declared\""
attr enum declared,computed
par STPRingNetwork.host2 hasIpv4 true
par STPRingNetwork.host2 hasIpv6 false
par STPRingNetwork.host2 hasGn false
par STPRingNetwork.host2 forwarding false
par STPRingNetwork.host2 multicastForwarding false
par STPRingNetwork.host2 hasUdp true
par STPRingNetwork.host2 hasTcp true
par STPRingNetwork.host2 hasSctp false
par STPRingNetwork.host2 hasQuic false
par STPRingNetwork.host2 numApps 0
par STPRingNetwork.scenarioManager typename "\"inet.common.scenario.ScenarioManager\""
par STPRingNetwork.scenarioManager displayStringTextFormat "\"total %c changes, %l left\\nnext at: %t\""
attr mutable ""
par STPRingNetwork.scenarioManager script "xml('<script/>\\n')"
par STPRingNetwork typename "\"src.STPRingNetwork\""

